
---------- Begin Simulation Statistics ----------
final_tick                               18446744073709551616                       # Number of ticks from beginning of simulation (restored from checkpoints and never reset)
host_mem_usage                                1336772                       # Number of bytes of host memory used
host_seconds                                     6.78                       # Real time elapsed on the host
host_tick_rate                           2721463789213067264                       # Simulator tick rate (ticks/s)
sim_freq                                   1000000000                       # Frequency of simulated ticks
sim_seconds                              18446744073.709553                       # Number of seconds simulated
sim_ticks                                18446744073709551616                       # Number of ticks simulated
system.clk_domain.clock                             1                       # Clock period in ticks
system.cpu00.pwrStateResidencyTicks::UNDEFINED 18446744073709551616                       # Cumulative time (in ticks) in various power states
system.cpu01.pwrStateResidencyTicks::UNDEFINED 18446744073709551616                       # Cumulative time (in ticks) in various power states
system.cpu02.pwrStateResidencyTicks::UNDEFINED 18446744073709551616                       # Cumulative time (in ticks) in various power states
system.cpu03.pwrStateResidencyTicks::UNDEFINED 18446744073709551616                       # Cumulative time (in ticks) in various power states
system.cpu04.pwrStateResidencyTicks::UNDEFINED 18446744073709551616                       # Cumulative time (in ticks) in various power states
system.cpu05.pwrStateResidencyTicks::UNDEFINED 18446744073709551616                       # Cumulative time (in ticks) in various power states
system.cpu06.pwrStateResidencyTicks::UNDEFINED 18446744073709551616                       # Cumulative time (in ticks) in various power states
system.cpu07.pwrStateResidencyTicks::UNDEFINED 18446744073709551616                       # Cumulative time (in ticks) in various power states
system.cpu08.pwrStateResidencyTicks::UNDEFINED 18446744073709551616                       # Cumulative time (in ticks) in various power states
system.cpu09.pwrStateResidencyTicks::UNDEFINED 18446744073709551616                       # Cumulative time (in ticks) in various power states
system.cpu10.pwrStateResidencyTicks::UNDEFINED 18446744073709551616                       # Cumulative time (in ticks) in various power states
system.cpu11.pwrStateResidencyTicks::UNDEFINED 18446744073709551616                       # Cumulative time (in ticks) in various power states
system.cpu12.pwrStateResidencyTicks::UNDEFINED 18446744073709551616                       # Cumulative time (in ticks) in various power states
system.cpu13.pwrStateResidencyTicks::UNDEFINED 18446744073709551616                       # Cumulative time (in ticks) in various power states
system.cpu14.pwrStateResidencyTicks::UNDEFINED 18446744073709551616                       # Cumulative time (in ticks) in various power states
system.cpu15.pwrStateResidencyTicks::UNDEFINED 18446744073709551616                       # Cumulative time (in ticks) in various power states
system.mem_ctrls00.avgBusLat                      nan                       # Average bus latency per DRAM burst
system.mem_ctrls00.avgGap                         nan                       # Average gap between requests
system.mem_ctrls00.avgMemAccLat                   nan                       # Average memory access latency per DRAM burst
system.mem_ctrls00.avgQLat                        nan                       # Average queueing delay per DRAM burst
system.mem_ctrls00.avgRdBW                       0.00                       # Average DRAM read bandwidth in MiByte/s
system.mem_ctrls00.avgRdBWSys                    0.00                       # Average system read bandwidth in MiByte/s
system.mem_ctrls00.avgRdQLen                      nan                       # Average read queue length when enqueuing
system.mem_ctrls00.avgWrBW                       0.00                       # Average achieved write bandwidth in MiByte/s
system.mem_ctrls00.avgWrBWSys                    0.00                       # Average system write bandwidth in MiByte/s
system.mem_ctrls00.avgWrQLen                      nan                       # Average write queue length when enqueuing
system.mem_ctrls00.busUtil                       0.00                       # Data bus utilization in percentage
system.mem_ctrls00.busUtilRead                   0.00                       # Data bus utilization in percentage for reads
system.mem_ctrls00.busUtilWrite                  0.00                       # Data bus utilization in percentage for writes
system.mem_ctrls00.bytesReadDRAM                    0                       # Total number of bytes read from DRAM
system.mem_ctrls00.bytesReadSys                     0                       # Total read bytes from the system interface side
system.mem_ctrls00.bytesReadWrQ                     0                       # Total number of bytes read from write queue
system.mem_ctrls00.bytesWritten                     0                       # Total number of bytes written to DRAM
system.mem_ctrls00.bytesWrittenSys                  0                       # Total written bytes from the system interface side
system.mem_ctrls00.mergedWrBursts                   0                       # Number of DRAM write bursts merged with an existing one
system.mem_ctrls00.neitherReadNorWriteReqs            0                       # Number of requests that are neither read nor write
system.mem_ctrls00.numRdRetry                       0                       # Number of times read queue was full causing retry
system.mem_ctrls00.numReadWriteTurnArounds            0                       # Number of turnarounds from READ to WRITE
system.mem_ctrls00.numStayReadState                 2                       # Number of times bus staying in READ state
system.mem_ctrls00.numStayWriteState                0                       # Number of times bus staying in WRITE state
system.mem_ctrls00.numWrRetry                       0                       # Number of times write queue was full causing retry
system.mem_ctrls00.numWriteReadTurnArounds            0                       # Number of turnarounds from WRITE to READ
system.mem_ctrls00.pageHitRate                    nan                       # Row buffer hit rate, read and write combined
system.mem_ctrls00.peakBW                    12800.00                       # Theoretical peak bandwidth in MiByte/s
system.mem_ctrls00.perBankRdBursts::0               0                       # Per bank write bursts
system.mem_ctrls00.perBankRdBursts::1               0                       # Per bank write bursts
system.mem_ctrls00.perBankRdBursts::2               0                       # Per bank write bursts
system.mem_ctrls00.perBankRdBursts::3               0                       # Per bank write bursts
system.mem_ctrls00.perBankRdBursts::4               0                       # Per bank write bursts
system.mem_ctrls00.perBankRdBursts::5               0                       # Per bank write bursts
system.mem_ctrls00.perBankRdBursts::6               0                       # Per bank write bursts
system.mem_ctrls00.perBankRdBursts::7               0                       # Per bank write bursts
system.mem_ctrls00.perBankRdBursts::8               0                       # Per bank write bursts
system.mem_ctrls00.perBankRdBursts::9               0                       # Per bank write bursts
system.mem_ctrls00.perBankRdBursts::10              0                       # Per bank write bursts
system.mem_ctrls00.perBankRdBursts::11              0                       # Per bank write bursts
system.mem_ctrls00.perBankRdBursts::12              0                       # Per bank write bursts
system.mem_ctrls00.perBankRdBursts::13              0                       # Per bank write bursts
system.mem_ctrls00.perBankRdBursts::14              0                       # Per bank write bursts
system.mem_ctrls00.perBankRdBursts::15              0                       # Per bank write bursts
system.mem_ctrls00.perBankWrBursts::0               0                       # Per bank write bursts
system.mem_ctrls00.perBankWrBursts::1               0                       # Per bank write bursts
system.mem_ctrls00.perBankWrBursts::2               0                       # Per bank write bursts
system.mem_ctrls00.perBankWrBursts::3               0                       # Per bank write bursts
system.mem_ctrls00.perBankWrBursts::4               0                       # Per bank write bursts
system.mem_ctrls00.perBankWrBursts::5               0                       # Per bank write bursts
system.mem_ctrls00.perBankWrBursts::6               0                       # Per bank write bursts
system.mem_ctrls00.perBankWrBursts::7               0                       # Per bank write bursts
system.mem_ctrls00.perBankWrBursts::8               0                       # Per bank write bursts
system.mem_ctrls00.perBankWrBursts::9               0                       # Per bank write bursts
system.mem_ctrls00.perBankWrBursts::10              0                       # Per bank write bursts
system.mem_ctrls00.perBankWrBursts::11              0                       # Per bank write bursts
system.mem_ctrls00.perBankWrBursts::12              0                       # Per bank write bursts
system.mem_ctrls00.perBankWrBursts::13              0                       # Per bank write bursts
system.mem_ctrls00.perBankWrBursts::14              0                       # Per bank write bursts
system.mem_ctrls00.perBankWrBursts::15              0                       # Per bank write bursts
system.mem_ctrls00.priorityMaxLatency    0.000000000000                       # per QoS priority maximum request to response latency (s)
system.mem_ctrls00.priorityMinLatency    0.000000000000                       # per QoS priority minimum request to response latency (s)
system.mem_ctrls00.pwrStateResidencyTicks::UNDEFINED 18446744073709551616                       # Cumulative time (in ticks) in various power states
system.mem_ctrls00.rdQLenPdf::0                     0                       # What read queue length does an incoming req see
system.mem_ctrls00.rdQLenPdf::1                     0                       # What read queue length does an incoming req see
system.mem_ctrls00.rdQLenPdf::2                     0                       # What read queue length does an incoming req see
system.mem_ctrls00.rdQLenPdf::3                     0                       # What read queue length does an incoming req see
system.mem_ctrls00.rdQLenPdf::4                     0                       # What read queue length does an incoming req see
system.mem_ctrls00.rdQLenPdf::5                     0                       # What read queue length does an incoming req see
system.mem_ctrls00.rdQLenPdf::6                     0                       # What read queue length does an incoming req see
system.mem_ctrls00.rdQLenPdf::7                     0                       # What read queue length does an incoming req see
system.mem_ctrls00.rdQLenPdf::8                     0                       # What read queue length does an incoming req see
system.mem_ctrls00.rdQLenPdf::9                     0                       # What read queue length does an incoming req see
system.mem_ctrls00.rdQLenPdf::10                    0                       # What read queue length does an incoming req see
system.mem_ctrls00.rdQLenPdf::11                    0                       # What read queue length does an incoming req see
system.mem_ctrls00.rdQLenPdf::12                    0                       # What read queue length does an incoming req see
system.mem_ctrls00.rdQLenPdf::13                    0                       # What read queue length does an incoming req see
system.mem_ctrls00.rdQLenPdf::14                    0                       # What read queue length does an incoming req see
system.mem_ctrls00.rdQLenPdf::15                    0                       # What read queue length does an incoming req see
system.mem_ctrls00.rdQLenPdf::16                    0                       # What read queue length does an incoming req see
system.mem_ctrls00.rdQLenPdf::17                    0                       # What read queue length does an incoming req see
system.mem_ctrls00.rdQLenPdf::18                    0                       # What read queue length does an incoming req see
system.mem_ctrls00.rdQLenPdf::19                    0                       # What read queue length does an incoming req see
system.mem_ctrls00.rdQLenPdf::20                    0                       # What read queue length does an incoming req see
system.mem_ctrls00.rdQLenPdf::21                    0                       # What read queue length does an incoming req see
system.mem_ctrls00.rdQLenPdf::22                    0                       # What read queue length does an incoming req see
system.mem_ctrls00.rdQLenPdf::23                    0                       # What read queue length does an incoming req see
system.mem_ctrls00.rdQLenPdf::24                    0                       # What read queue length does an incoming req see
system.mem_ctrls00.rdQLenPdf::25                    0                       # What read queue length does an incoming req see
system.mem_ctrls00.rdQLenPdf::26                    0                       # What read queue length does an incoming req see
system.mem_ctrls00.rdQLenPdf::27                    0                       # What read queue length does an incoming req see
system.mem_ctrls00.rdQLenPdf::28                    0                       # What read queue length does an incoming req see
system.mem_ctrls00.rdQLenPdf::29                    0                       # What read queue length does an incoming req see
system.mem_ctrls00.rdQLenPdf::30                    0                       # What read queue length does an incoming req see
system.mem_ctrls00.rdQLenPdf::31                    0                       # What read queue length does an incoming req see
system.mem_ctrls00.readBursts                       0                       # Number of DRAM read bursts, including those serviced by the write queue
system.mem_ctrls00.readPktSize::0                   0                       # Read request sizes (log2)
system.mem_ctrls00.readPktSize::1                   0                       # Read request sizes (log2)
system.mem_ctrls00.readPktSize::2                   0                       # Read request sizes (log2)
system.mem_ctrls00.readPktSize::3                   0                       # Read request sizes (log2)
system.mem_ctrls00.readPktSize::4                   0                       # Read request sizes (log2)
system.mem_ctrls00.readPktSize::5                   0                       # Read request sizes (log2)
system.mem_ctrls00.readPktSize::6                   0                       # Read request sizes (log2)
system.mem_ctrls00.readReqs                         0                       # Number of read requests accepted
system.mem_ctrls00.readRowHitRate                 nan                       # Row buffer hit rate for reads
system.mem_ctrls00.readRowHits                      0                       # Number of row buffer hits during reads
system.mem_ctrls00.servicedByWrQ                    0                       # Number of DRAM read bursts serviced by the write queue
system.mem_ctrls00.totBusLat                        0                       # Total ticks spent in databus transfers
system.mem_ctrls00.totGap                           0                       # Total gap between requests
system.mem_ctrls00.totMemAccLat                     0                       # Total ticks spent from burst creation until serviced by the DRAM
system.mem_ctrls00.totQLat                          0                       # Total ticks spent queuing
system.mem_ctrls00.wrQLenPdf::0                     0                       # What write queue length does an incoming req see
system.mem_ctrls00.wrQLenPdf::1                     0                       # What write queue length does an incoming req see
system.mem_ctrls00.wrQLenPdf::2                     0                       # What write queue length does an incoming req see
system.mem_ctrls00.wrQLenPdf::3                     0                       # What write queue length does an incoming req see
system.mem_ctrls00.wrQLenPdf::4                     0                       # What write queue length does an incoming req see
system.mem_ctrls00.wrQLenPdf::5                     0                       # What write queue length does an incoming req see
system.mem_ctrls00.wrQLenPdf::6                     0                       # What write queue length does an incoming req see
system.mem_ctrls00.wrQLenPdf::7                     0                       # What write queue length does an incoming req see
system.mem_ctrls00.wrQLenPdf::8                     0                       # What write queue length does an incoming req see
system.mem_ctrls00.wrQLenPdf::9                     0                       # What write queue length does an incoming req see
system.mem_ctrls00.wrQLenPdf::10                    0                       # What write queue length does an incoming req see
system.mem_ctrls00.wrQLenPdf::11                    0                       # What write queue length does an incoming req see
system.mem_ctrls00.wrQLenPdf::12                    0                       # What write queue length does an incoming req see
system.mem_ctrls00.wrQLenPdf::13                    0                       # What write queue length does an incoming req see
system.mem_ctrls00.wrQLenPdf::14                    0                       # What write queue length does an incoming req see
system.mem_ctrls00.wrQLenPdf::15                    0                       # What write queue length does an incoming req see
system.mem_ctrls00.wrQLenPdf::16                    0                       # What write queue length does an incoming req see
system.mem_ctrls00.wrQLenPdf::17                    0                       # What write queue length does an incoming req see
system.mem_ctrls00.wrQLenPdf::18                    0                       # What write queue length does an incoming req see
system.mem_ctrls00.wrQLenPdf::19                    0                       # What write queue length does an incoming req see
system.mem_ctrls00.wrQLenPdf::20                    0                       # What write queue length does an incoming req see
system.mem_ctrls00.wrQLenPdf::21                    0                       # What write queue length does an incoming req see
system.mem_ctrls00.wrQLenPdf::22                    0                       # What write queue length does an incoming req see
system.mem_ctrls00.wrQLenPdf::23                    0                       # What write queue length does an incoming req see
system.mem_ctrls00.wrQLenPdf::24                    0                       # What write queue length does an incoming req see
system.mem_ctrls00.wrQLenPdf::25                    0                       # What write queue length does an incoming req see
system.mem_ctrls00.wrQLenPdf::26                    0                       # What write queue length does an incoming req see
system.mem_ctrls00.wrQLenPdf::27                    0                       # What write queue length does an incoming req see
system.mem_ctrls00.wrQLenPdf::28                    0                       # What write queue length does an incoming req see
system.mem_ctrls00.wrQLenPdf::29                    0                       # What write queue length does an incoming req see
system.mem_ctrls00.wrQLenPdf::30                    0                       # What write queue length does an incoming req see
system.mem_ctrls00.wrQLenPdf::31                    0                       # What write queue length does an incoming req see
system.mem_ctrls00.wrQLenPdf::32                    0                       # What write queue length does an incoming req see
system.mem_ctrls00.wrQLenPdf::33                    0                       # What write queue length does an incoming req see
system.mem_ctrls00.wrQLenPdf::34                    0                       # What write queue length does an incoming req see
system.mem_ctrls00.wrQLenPdf::35                    0                       # What write queue length does an incoming req see
system.mem_ctrls00.wrQLenPdf::36                    0                       # What write queue length does an incoming req see
system.mem_ctrls00.wrQLenPdf::37                    0                       # What write queue length does an incoming req see
system.mem_ctrls00.wrQLenPdf::38                    0                       # What write queue length does an incoming req see
system.mem_ctrls00.wrQLenPdf::39                    0                       # What write queue length does an incoming req see
system.mem_ctrls00.wrQLenPdf::40                    0                       # What write queue length does an incoming req see
system.mem_ctrls00.wrQLenPdf::41                    0                       # What write queue length does an incoming req see
system.mem_ctrls00.wrQLenPdf::42                    0                       # What write queue length does an incoming req see
system.mem_ctrls00.wrQLenPdf::43                    0                       # What write queue length does an incoming req see
system.mem_ctrls00.wrQLenPdf::44                    0                       # What write queue length does an incoming req see
system.mem_ctrls00.wrQLenPdf::45                    0                       # What write queue length does an incoming req see
system.mem_ctrls00.wrQLenPdf::46                    0                       # What write queue length does an incoming req see
system.mem_ctrls00.wrQLenPdf::47                    0                       # What write queue length does an incoming req see
system.mem_ctrls00.wrQLenPdf::48                    0                       # What write queue length does an incoming req see
system.mem_ctrls00.wrQLenPdf::49                    0                       # What write queue length does an incoming req see
system.mem_ctrls00.wrQLenPdf::50                    0                       # What write queue length does an incoming req see
system.mem_ctrls00.wrQLenPdf::51                    0                       # What write queue length does an incoming req see
system.mem_ctrls00.wrQLenPdf::52                    0                       # What write queue length does an incoming req see
system.mem_ctrls00.wrQLenPdf::53                    0                       # What write queue length does an incoming req see
system.mem_ctrls00.wrQLenPdf::54                    0                       # What write queue length does an incoming req see
system.mem_ctrls00.wrQLenPdf::55                    0                       # What write queue length does an incoming req see
system.mem_ctrls00.wrQLenPdf::56                    0                       # What write queue length does an incoming req see
system.mem_ctrls00.wrQLenPdf::57                    0                       # What write queue length does an incoming req see
system.mem_ctrls00.wrQLenPdf::58                    0                       # What write queue length does an incoming req see
system.mem_ctrls00.wrQLenPdf::59                    0                       # What write queue length does an incoming req see
system.mem_ctrls00.wrQLenPdf::60                    0                       # What write queue length does an incoming req see
system.mem_ctrls00.wrQLenPdf::61                    0                       # What write queue length does an incoming req see
system.mem_ctrls00.wrQLenPdf::62                    0                       # What write queue length does an incoming req see
system.mem_ctrls00.wrQLenPdf::63                    0                       # What write queue length does an incoming req see
system.mem_ctrls00.writeBursts                      0                       # Number of DRAM write bursts, including those merged in the write queue
system.mem_ctrls00.writePktSize::0                  0                       # Write request sizes (log2)
system.mem_ctrls00.writePktSize::1                  0                       # Write request sizes (log2)
system.mem_ctrls00.writePktSize::2                  0                       # Write request sizes (log2)
system.mem_ctrls00.writePktSize::3                  0                       # Write request sizes (log2)
system.mem_ctrls00.writePktSize::4                  0                       # Write request sizes (log2)
system.mem_ctrls00.writePktSize::5                  0                       # Write request sizes (log2)
system.mem_ctrls00.writePktSize::6                  0                       # Write request sizes (log2)
system.mem_ctrls00.writeReqs                        0                       # Number of write requests accepted
system.mem_ctrls00.writeRowHitRate                nan                       # Row buffer hit rate for writes
system.mem_ctrls00.writeRowHits                     0                       # Number of row buffer hits during writes
system.mem_ctrls00_0.actBackEnergy             112176                       # Energy for active background per rank (pJ)
system.mem_ctrls00_0.actEnergy                      0                       # Energy for activate commands per rank (pJ)
system.mem_ctrls00_0.actPowerDownEnergy             0                       # Energy for active power-down per rank (pJ)
system.mem_ctrls00_0.averagePower            0.000000                       # Core power per rank (mW)
system.mem_ctrls00_0.memoryStateTime::IDLE         7792                       # Time in different power states
system.mem_ctrls00_0.memoryStateTime::REF          260                       # Time in different power states
system.mem_ctrls00_0.memoryStateTime::SREF 18446744073709535232                       # Time in different power states
system.mem_ctrls00_0.memoryStateTime::PRE_PDN         7526                       # Time in different power states
system.mem_ctrls00_0.memoryStateTime::ACT            0                       # Time in different power states
system.mem_ctrls00_0.memoryStateTime::ACT_PDN            0                       # Time in different power states
system.mem_ctrls00_0.preBackEnergy            2997504                       # Energy for precharge background per rank (pJ)
system.mem_ctrls00_0.preEnergy                      0                       # Energy for precharge commands per rank (pJ)
system.mem_ctrls00_0.prePowerDownEnergy       2889984                       # Energy for precharge power-down per rank (pJ)
system.mem_ctrls00_0.readEnergy                     0                       # Energy for read commands per rank (pJ)
system.mem_ctrls00_0.refreshEnergy       614640.000000                       # Energy for refresh commands per rank (pJ)
system.mem_ctrls00_0.selfRefreshEnergy              0                       # Energy for self refresh per rank (pJ)
system.mem_ctrls00_0.totalEnergy              6614304                       # Total energy per rank (pJ)
system.mem_ctrls00_0.totalIdleTime               7526                       # Total Idle time Per DRAM Rank
system.mem_ctrls00_0.writeEnergy                    0                       # Energy for write commands per rank (pJ)
system.mem_ctrls00_1.actBackEnergy             112176                       # Energy for active background per rank (pJ)
system.mem_ctrls00_1.actEnergy                      0                       # Energy for activate commands per rank (pJ)
system.mem_ctrls00_1.actPowerDownEnergy             0                       # Energy for active power-down per rank (pJ)
system.mem_ctrls00_1.averagePower            0.000000                       # Core power per rank (mW)
system.mem_ctrls00_1.memoryStateTime::IDLE         7792                       # Time in different power states
system.mem_ctrls00_1.memoryStateTime::REF          260                       # Time in different power states
system.mem_ctrls00_1.memoryStateTime::SREF 18446744073709535232                       # Time in different power states
system.mem_ctrls00_1.memoryStateTime::PRE_PDN         7526                       # Time in different power states
system.mem_ctrls00_1.memoryStateTime::ACT            0                       # Time in different power states
system.mem_ctrls00_1.memoryStateTime::ACT_PDN            0                       # Time in different power states
system.mem_ctrls00_1.preBackEnergy            2997504                       # Energy for precharge background per rank (pJ)
system.mem_ctrls00_1.preEnergy                      0                       # Energy for precharge commands per rank (pJ)
system.mem_ctrls00_1.prePowerDownEnergy       2889984                       # Energy for precharge power-down per rank (pJ)
system.mem_ctrls00_1.readEnergy                     0                       # Energy for read commands per rank (pJ)
system.mem_ctrls00_1.refreshEnergy       614640.000000                       # Energy for refresh commands per rank (pJ)
system.mem_ctrls00_1.selfRefreshEnergy              0                       # Energy for self refresh per rank (pJ)
system.mem_ctrls00_1.totalEnergy              6614304                       # Total energy per rank (pJ)
system.mem_ctrls00_1.totalIdleTime               7526                       # Total Idle time Per DRAM Rank
system.mem_ctrls00_1.writeEnergy                    0                       # Energy for write commands per rank (pJ)
system.mem_ctrls01.avgBusLat                      nan                       # Average bus latency per DRAM burst
system.mem_ctrls01.avgGap                         nan                       # Average gap between requests
system.mem_ctrls01.avgMemAccLat                   nan                       # Average memory access latency per DRAM burst
system.mem_ctrls01.avgQLat                        nan                       # Average queueing delay per DRAM burst
system.mem_ctrls01.avgRdBW                       0.00                       # Average DRAM read bandwidth in MiByte/s
system.mem_ctrls01.avgRdBWSys                    0.00                       # Average system read bandwidth in MiByte/s
system.mem_ctrls01.avgRdQLen                      nan                       # Average read queue length when enqueuing
system.mem_ctrls01.avgWrBW                       0.00                       # Average achieved write bandwidth in MiByte/s
system.mem_ctrls01.avgWrBWSys                    0.00                       # Average system write bandwidth in MiByte/s
system.mem_ctrls01.avgWrQLen                      nan                       # Average write queue length when enqueuing
system.mem_ctrls01.busUtil                       0.00                       # Data bus utilization in percentage
system.mem_ctrls01.busUtilRead                   0.00                       # Data bus utilization in percentage for reads
system.mem_ctrls01.busUtilWrite                  0.00                       # Data bus utilization in percentage for writes
system.mem_ctrls01.bytesReadDRAM                    0                       # Total number of bytes read from DRAM
system.mem_ctrls01.bytesReadSys                     0                       # Total read bytes from the system interface side
system.mem_ctrls01.bytesReadWrQ                     0                       # Total number of bytes read from write queue
system.mem_ctrls01.bytesWritten                     0                       # Total number of bytes written to DRAM
system.mem_ctrls01.bytesWrittenSys                  0                       # Total written bytes from the system interface side
system.mem_ctrls01.mergedWrBursts                   0                       # Number of DRAM write bursts merged with an existing one
system.mem_ctrls01.neitherReadNorWriteReqs            0                       # Number of requests that are neither read nor write
system.mem_ctrls01.numRdRetry                       0                       # Number of times read queue was full causing retry
system.mem_ctrls01.numReadWriteTurnArounds            0                       # Number of turnarounds from READ to WRITE
system.mem_ctrls01.numStayReadState                 2                       # Number of times bus staying in READ state
system.mem_ctrls01.numStayWriteState                0                       # Number of times bus staying in WRITE state
system.mem_ctrls01.numWrRetry                       0                       # Number of times write queue was full causing retry
system.mem_ctrls01.numWriteReadTurnArounds            0                       # Number of turnarounds from WRITE to READ
system.mem_ctrls01.pageHitRate                    nan                       # Row buffer hit rate, read and write combined
system.mem_ctrls01.peakBW                    12800.00                       # Theoretical peak bandwidth in MiByte/s
system.mem_ctrls01.perBankRdBursts::0               0                       # Per bank write bursts
system.mem_ctrls01.perBankRdBursts::1               0                       # Per bank write bursts
system.mem_ctrls01.perBankRdBursts::2               0                       # Per bank write bursts
system.mem_ctrls01.perBankRdBursts::3               0                       # Per bank write bursts
system.mem_ctrls01.perBankRdBursts::4               0                       # Per bank write bursts
system.mem_ctrls01.perBankRdBursts::5               0                       # Per bank write bursts
system.mem_ctrls01.perBankRdBursts::6               0                       # Per bank write bursts
system.mem_ctrls01.perBankRdBursts::7               0                       # Per bank write bursts
system.mem_ctrls01.perBankRdBursts::8               0                       # Per bank write bursts
system.mem_ctrls01.perBankRdBursts::9               0                       # Per bank write bursts
system.mem_ctrls01.perBankRdBursts::10              0                       # Per bank write bursts
system.mem_ctrls01.perBankRdBursts::11              0                       # Per bank write bursts
system.mem_ctrls01.perBankRdBursts::12              0                       # Per bank write bursts
system.mem_ctrls01.perBankRdBursts::13              0                       # Per bank write bursts
system.mem_ctrls01.perBankRdBursts::14              0                       # Per bank write bursts
system.mem_ctrls01.perBankRdBursts::15              0                       # Per bank write bursts
system.mem_ctrls01.perBankWrBursts::0               0                       # Per bank write bursts
system.mem_ctrls01.perBankWrBursts::1               0                       # Per bank write bursts
system.mem_ctrls01.perBankWrBursts::2               0                       # Per bank write bursts
system.mem_ctrls01.perBankWrBursts::3               0                       # Per bank write bursts
system.mem_ctrls01.perBankWrBursts::4               0                       # Per bank write bursts
system.mem_ctrls01.perBankWrBursts::5               0                       # Per bank write bursts
system.mem_ctrls01.perBankWrBursts::6               0                       # Per bank write bursts
system.mem_ctrls01.perBankWrBursts::7               0                       # Per bank write bursts
system.mem_ctrls01.perBankWrBursts::8               0                       # Per bank write bursts
system.mem_ctrls01.perBankWrBursts::9               0                       # Per bank write bursts
system.mem_ctrls01.perBankWrBursts::10              0                       # Per bank write bursts
system.mem_ctrls01.perBankWrBursts::11              0                       # Per bank write bursts
system.mem_ctrls01.perBankWrBursts::12              0                       # Per bank write bursts
system.mem_ctrls01.perBankWrBursts::13              0                       # Per bank write bursts
system.mem_ctrls01.perBankWrBursts::14              0                       # Per bank write bursts
system.mem_ctrls01.perBankWrBursts::15              0                       # Per bank write bursts
system.mem_ctrls01.priorityMaxLatency    0.000000000000                       # per QoS priority maximum request to response latency (s)
system.mem_ctrls01.priorityMinLatency    0.000000000000                       # per QoS priority minimum request to response latency (s)
system.mem_ctrls01.pwrStateResidencyTicks::UNDEFINED 18446744073709551616                       # Cumulative time (in ticks) in various power states
system.mem_ctrls01.rdQLenPdf::0                     0                       # What read queue length does an incoming req see
system.mem_ctrls01.rdQLenPdf::1                     0                       # What read queue length does an incoming req see
system.mem_ctrls01.rdQLenPdf::2                     0                       # What read queue length does an incoming req see
system.mem_ctrls01.rdQLenPdf::3                     0                       # What read queue length does an incoming req see
system.mem_ctrls01.rdQLenPdf::4                     0                       # What read queue length does an incoming req see
system.mem_ctrls01.rdQLenPdf::5                     0                       # What read queue length does an incoming req see
system.mem_ctrls01.rdQLenPdf::6                     0                       # What read queue length does an incoming req see
system.mem_ctrls01.rdQLenPdf::7                     0                       # What read queue length does an incoming req see
system.mem_ctrls01.rdQLenPdf::8                     0                       # What read queue length does an incoming req see
system.mem_ctrls01.rdQLenPdf::9                     0                       # What read queue length does an incoming req see
system.mem_ctrls01.rdQLenPdf::10                    0                       # What read queue length does an incoming req see
system.mem_ctrls01.rdQLenPdf::11                    0                       # What read queue length does an incoming req see
system.mem_ctrls01.rdQLenPdf::12                    0                       # What read queue length does an incoming req see
system.mem_ctrls01.rdQLenPdf::13                    0                       # What read queue length does an incoming req see
system.mem_ctrls01.rdQLenPdf::14                    0                       # What read queue length does an incoming req see
system.mem_ctrls01.rdQLenPdf::15                    0                       # What read queue length does an incoming req see
system.mem_ctrls01.rdQLenPdf::16                    0                       # What read queue length does an incoming req see
system.mem_ctrls01.rdQLenPdf::17                    0                       # What read queue length does an incoming req see
system.mem_ctrls01.rdQLenPdf::18                    0                       # What read queue length does an incoming req see
system.mem_ctrls01.rdQLenPdf::19                    0                       # What read queue length does an incoming req see
system.mem_ctrls01.rdQLenPdf::20                    0                       # What read queue length does an incoming req see
system.mem_ctrls01.rdQLenPdf::21                    0                       # What read queue length does an incoming req see
system.mem_ctrls01.rdQLenPdf::22                    0                       # What read queue length does an incoming req see
system.mem_ctrls01.rdQLenPdf::23                    0                       # What read queue length does an incoming req see
system.mem_ctrls01.rdQLenPdf::24                    0                       # What read queue length does an incoming req see
system.mem_ctrls01.rdQLenPdf::25                    0                       # What read queue length does an incoming req see
system.mem_ctrls01.rdQLenPdf::26                    0                       # What read queue length does an incoming req see
system.mem_ctrls01.rdQLenPdf::27                    0                       # What read queue length does an incoming req see
system.mem_ctrls01.rdQLenPdf::28                    0                       # What read queue length does an incoming req see
system.mem_ctrls01.rdQLenPdf::29                    0                       # What read queue length does an incoming req see
system.mem_ctrls01.rdQLenPdf::30                    0                       # What read queue length does an incoming req see
system.mem_ctrls01.rdQLenPdf::31                    0                       # What read queue length does an incoming req see
system.mem_ctrls01.readBursts                       0                       # Number of DRAM read bursts, including those serviced by the write queue
system.mem_ctrls01.readPktSize::0                   0                       # Read request sizes (log2)
system.mem_ctrls01.readPktSize::1                   0                       # Read request sizes (log2)
system.mem_ctrls01.readPktSize::2                   0                       # Read request sizes (log2)
system.mem_ctrls01.readPktSize::3                   0                       # Read request sizes (log2)
system.mem_ctrls01.readPktSize::4                   0                       # Read request sizes (log2)
system.mem_ctrls01.readPktSize::5                   0                       # Read request sizes (log2)
system.mem_ctrls01.readPktSize::6                   0                       # Read request sizes (log2)
system.mem_ctrls01.readReqs                         0                       # Number of read requests accepted
system.mem_ctrls01.readRowHitRate                 nan                       # Row buffer hit rate for reads
system.mem_ctrls01.readRowHits                      0                       # Number of row buffer hits during reads
system.mem_ctrls01.servicedByWrQ                    0                       # Number of DRAM read bursts serviced by the write queue
system.mem_ctrls01.totBusLat                        0                       # Total ticks spent in databus transfers
system.mem_ctrls01.totGap                           0                       # Total gap between requests
system.mem_ctrls01.totMemAccLat                     0                       # Total ticks spent from burst creation until serviced by the DRAM
system.mem_ctrls01.totQLat                          0                       # Total ticks spent queuing
system.mem_ctrls01.wrQLenPdf::0                     0                       # What write queue length does an incoming req see
system.mem_ctrls01.wrQLenPdf::1                     0                       # What write queue length does an incoming req see
system.mem_ctrls01.wrQLenPdf::2                     0                       # What write queue length does an incoming req see
system.mem_ctrls01.wrQLenPdf::3                     0                       # What write queue length does an incoming req see
system.mem_ctrls01.wrQLenPdf::4                     0                       # What write queue length does an incoming req see
system.mem_ctrls01.wrQLenPdf::5                     0                       # What write queue length does an incoming req see
system.mem_ctrls01.wrQLenPdf::6                     0                       # What write queue length does an incoming req see
system.mem_ctrls01.wrQLenPdf::7                     0                       # What write queue length does an incoming req see
system.mem_ctrls01.wrQLenPdf::8                     0                       # What write queue length does an incoming req see
system.mem_ctrls01.wrQLenPdf::9                     0                       # What write queue length does an incoming req see
system.mem_ctrls01.wrQLenPdf::10                    0                       # What write queue length does an incoming req see
system.mem_ctrls01.wrQLenPdf::11                    0                       # What write queue length does an incoming req see
system.mem_ctrls01.wrQLenPdf::12                    0                       # What write queue length does an incoming req see
system.mem_ctrls01.wrQLenPdf::13                    0                       # What write queue length does an incoming req see
system.mem_ctrls01.wrQLenPdf::14                    0                       # What write queue length does an incoming req see
system.mem_ctrls01.wrQLenPdf::15                    0                       # What write queue length does an incoming req see
system.mem_ctrls01.wrQLenPdf::16                    0                       # What write queue length does an incoming req see
system.mem_ctrls01.wrQLenPdf::17                    0                       # What write queue length does an incoming req see
system.mem_ctrls01.wrQLenPdf::18                    0                       # What write queue length does an incoming req see
system.mem_ctrls01.wrQLenPdf::19                    0                       # What write queue length does an incoming req see
system.mem_ctrls01.wrQLenPdf::20                    0                       # What write queue length does an incoming req see
system.mem_ctrls01.wrQLenPdf::21                    0                       # What write queue length does an incoming req see
system.mem_ctrls01.wrQLenPdf::22                    0                       # What write queue length does an incoming req see
system.mem_ctrls01.wrQLenPdf::23                    0                       # What write queue length does an incoming req see
system.mem_ctrls01.wrQLenPdf::24                    0                       # What write queue length does an incoming req see
system.mem_ctrls01.wrQLenPdf::25                    0                       # What write queue length does an incoming req see
system.mem_ctrls01.wrQLenPdf::26                    0                       # What write queue length does an incoming req see
system.mem_ctrls01.wrQLenPdf::27                    0                       # What write queue length does an incoming req see
system.mem_ctrls01.wrQLenPdf::28                    0                       # What write queue length does an incoming req see
system.mem_ctrls01.wrQLenPdf::29                    0                       # What write queue length does an incoming req see
system.mem_ctrls01.wrQLenPdf::30                    0                       # What write queue length does an incoming req see
system.mem_ctrls01.wrQLenPdf::31                    0                       # What write queue length does an incoming req see
system.mem_ctrls01.wrQLenPdf::32                    0                       # What write queue length does an incoming req see
system.mem_ctrls01.wrQLenPdf::33                    0                       # What write queue length does an incoming req see
system.mem_ctrls01.wrQLenPdf::34                    0                       # What write queue length does an incoming req see
system.mem_ctrls01.wrQLenPdf::35                    0                       # What write queue length does an incoming req see
system.mem_ctrls01.wrQLenPdf::36                    0                       # What write queue length does an incoming req see
system.mem_ctrls01.wrQLenPdf::37                    0                       # What write queue length does an incoming req see
system.mem_ctrls01.wrQLenPdf::38                    0                       # What write queue length does an incoming req see
system.mem_ctrls01.wrQLenPdf::39                    0                       # What write queue length does an incoming req see
system.mem_ctrls01.wrQLenPdf::40                    0                       # What write queue length does an incoming req see
system.mem_ctrls01.wrQLenPdf::41                    0                       # What write queue length does an incoming req see
system.mem_ctrls01.wrQLenPdf::42                    0                       # What write queue length does an incoming req see
system.mem_ctrls01.wrQLenPdf::43                    0                       # What write queue length does an incoming req see
system.mem_ctrls01.wrQLenPdf::44                    0                       # What write queue length does an incoming req see
system.mem_ctrls01.wrQLenPdf::45                    0                       # What write queue length does an incoming req see
system.mem_ctrls01.wrQLenPdf::46                    0                       # What write queue length does an incoming req see
system.mem_ctrls01.wrQLenPdf::47                    0                       # What write queue length does an incoming req see
system.mem_ctrls01.wrQLenPdf::48                    0                       # What write queue length does an incoming req see
system.mem_ctrls01.wrQLenPdf::49                    0                       # What write queue length does an incoming req see
system.mem_ctrls01.wrQLenPdf::50                    0                       # What write queue length does an incoming req see
system.mem_ctrls01.wrQLenPdf::51                    0                       # What write queue length does an incoming req see
system.mem_ctrls01.wrQLenPdf::52                    0                       # What write queue length does an incoming req see
system.mem_ctrls01.wrQLenPdf::53                    0                       # What write queue length does an incoming req see
system.mem_ctrls01.wrQLenPdf::54                    0                       # What write queue length does an incoming req see
system.mem_ctrls01.wrQLenPdf::55                    0                       # What write queue length does an incoming req see
system.mem_ctrls01.wrQLenPdf::56                    0                       # What write queue length does an incoming req see
system.mem_ctrls01.wrQLenPdf::57                    0                       # What write queue length does an incoming req see
system.mem_ctrls01.wrQLenPdf::58                    0                       # What write queue length does an incoming req see
system.mem_ctrls01.wrQLenPdf::59                    0                       # What write queue length does an incoming req see
system.mem_ctrls01.wrQLenPdf::60                    0                       # What write queue length does an incoming req see
system.mem_ctrls01.wrQLenPdf::61                    0                       # What write queue length does an incoming req see
system.mem_ctrls01.wrQLenPdf::62                    0                       # What write queue length does an incoming req see
system.mem_ctrls01.wrQLenPdf::63                    0                       # What write queue length does an incoming req see
system.mem_ctrls01.writeBursts                      0                       # Number of DRAM write bursts, including those merged in the write queue
system.mem_ctrls01.writePktSize::0                  0                       # Write request sizes (log2)
system.mem_ctrls01.writePktSize::1                  0                       # Write request sizes (log2)
system.mem_ctrls01.writePktSize::2                  0                       # Write request sizes (log2)
system.mem_ctrls01.writePktSize::3                  0                       # Write request sizes (log2)
system.mem_ctrls01.writePktSize::4                  0                       # Write request sizes (log2)
system.mem_ctrls01.writePktSize::5                  0                       # Write request sizes (log2)
system.mem_ctrls01.writePktSize::6                  0                       # Write request sizes (log2)
system.mem_ctrls01.writeReqs                        0                       # Number of write requests accepted
system.mem_ctrls01.writeRowHitRate                nan                       # Row buffer hit rate for writes
system.mem_ctrls01.writeRowHits                     0                       # Number of row buffer hits during writes
system.mem_ctrls01_0.actBackEnergy             112176                       # Energy for active background per rank (pJ)
system.mem_ctrls01_0.actEnergy                      0                       # Energy for activate commands per rank (pJ)
system.mem_ctrls01_0.actPowerDownEnergy             0                       # Energy for active power-down per rank (pJ)
system.mem_ctrls01_0.averagePower            0.000000                       # Core power per rank (mW)
system.mem_ctrls01_0.memoryStateTime::IDLE         7792                       # Time in different power states
system.mem_ctrls01_0.memoryStateTime::REF          260                       # Time in different power states
system.mem_ctrls01_0.memoryStateTime::SREF 18446744073709535232                       # Time in different power states
system.mem_ctrls01_0.memoryStateTime::PRE_PDN         7526                       # Time in different power states
system.mem_ctrls01_0.memoryStateTime::ACT            0                       # Time in different power states
system.mem_ctrls01_0.memoryStateTime::ACT_PDN            0                       # Time in different power states
system.mem_ctrls01_0.preBackEnergy            2997504                       # Energy for precharge background per rank (pJ)
system.mem_ctrls01_0.preEnergy                      0                       # Energy for precharge commands per rank (pJ)
system.mem_ctrls01_0.prePowerDownEnergy       2889984                       # Energy for precharge power-down per rank (pJ)
system.mem_ctrls01_0.readEnergy                     0                       # Energy for read commands per rank (pJ)
system.mem_ctrls01_0.refreshEnergy       614640.000000                       # Energy for refresh commands per rank (pJ)
system.mem_ctrls01_0.selfRefreshEnergy              0                       # Energy for self refresh per rank (pJ)
system.mem_ctrls01_0.totalEnergy              6614304                       # Total energy per rank (pJ)
system.mem_ctrls01_0.totalIdleTime               7526                       # Total Idle time Per DRAM Rank
system.mem_ctrls01_0.writeEnergy                    0                       # Energy for write commands per rank (pJ)
system.mem_ctrls01_1.actBackEnergy             112176                       # Energy for active background per rank (pJ)
system.mem_ctrls01_1.actEnergy                      0                       # Energy for activate commands per rank (pJ)
system.mem_ctrls01_1.actPowerDownEnergy             0                       # Energy for active power-down per rank (pJ)
system.mem_ctrls01_1.averagePower            0.000000                       # Core power per rank (mW)
system.mem_ctrls01_1.memoryStateTime::IDLE         7792                       # Time in different power states
system.mem_ctrls01_1.memoryStateTime::REF          260                       # Time in different power states
system.mem_ctrls01_1.memoryStateTime::SREF 18446744073709535232                       # Time in different power states
system.mem_ctrls01_1.memoryStateTime::PRE_PDN         7526                       # Time in different power states
system.mem_ctrls01_1.memoryStateTime::ACT            0                       # Time in different power states
system.mem_ctrls01_1.memoryStateTime::ACT_PDN            0                       # Time in different power states
system.mem_ctrls01_1.preBackEnergy            2997504                       # Energy for precharge background per rank (pJ)
system.mem_ctrls01_1.preEnergy                      0                       # Energy for precharge commands per rank (pJ)
system.mem_ctrls01_1.prePowerDownEnergy       2889984                       # Energy for precharge power-down per rank (pJ)
system.mem_ctrls01_1.readEnergy                     0                       # Energy for read commands per rank (pJ)
system.mem_ctrls01_1.refreshEnergy       614640.000000                       # Energy for refresh commands per rank (pJ)
system.mem_ctrls01_1.selfRefreshEnergy              0                       # Energy for self refresh per rank (pJ)
system.mem_ctrls01_1.totalEnergy              6614304                       # Total energy per rank (pJ)
system.mem_ctrls01_1.totalIdleTime               7526                       # Total Idle time Per DRAM Rank
system.mem_ctrls01_1.writeEnergy                    0                       # Energy for write commands per rank (pJ)
system.mem_ctrls02.avgBusLat                      nan                       # Average bus latency per DRAM burst
system.mem_ctrls02.avgGap                         nan                       # Average gap between requests
system.mem_ctrls02.avgMemAccLat                   nan                       # Average memory access latency per DRAM burst
system.mem_ctrls02.avgQLat                        nan                       # Average queueing delay per DRAM burst
system.mem_ctrls02.avgRdBW                       0.00                       # Average DRAM read bandwidth in MiByte/s
system.mem_ctrls02.avgRdBWSys                    0.00                       # Average system read bandwidth in MiByte/s
system.mem_ctrls02.avgRdQLen                      nan                       # Average read queue length when enqueuing
system.mem_ctrls02.avgWrBW                       0.00                       # Average achieved write bandwidth in MiByte/s
system.mem_ctrls02.avgWrBWSys                    0.00                       # Average system write bandwidth in MiByte/s
system.mem_ctrls02.avgWrQLen                      nan                       # Average write queue length when enqueuing
system.mem_ctrls02.busUtil                       0.00                       # Data bus utilization in percentage
system.mem_ctrls02.busUtilRead                   0.00                       # Data bus utilization in percentage for reads
system.mem_ctrls02.busUtilWrite                  0.00                       # Data bus utilization in percentage for writes
system.mem_ctrls02.bytesReadDRAM                    0                       # Total number of bytes read from DRAM
system.mem_ctrls02.bytesReadSys                     0                       # Total read bytes from the system interface side
system.mem_ctrls02.bytesReadWrQ                     0                       # Total number of bytes read from write queue
system.mem_ctrls02.bytesWritten                     0                       # Total number of bytes written to DRAM
system.mem_ctrls02.bytesWrittenSys                  0                       # Total written bytes from the system interface side
system.mem_ctrls02.mergedWrBursts                   0                       # Number of DRAM write bursts merged with an existing one
system.mem_ctrls02.neitherReadNorWriteReqs            0                       # Number of requests that are neither read nor write
system.mem_ctrls02.numRdRetry                       0                       # Number of times read queue was full causing retry
system.mem_ctrls02.numReadWriteTurnArounds            0                       # Number of turnarounds from READ to WRITE
system.mem_ctrls02.numStayReadState                 2                       # Number of times bus staying in READ state
system.mem_ctrls02.numStayWriteState                0                       # Number of times bus staying in WRITE state
system.mem_ctrls02.numWrRetry                       0                       # Number of times write queue was full causing retry
system.mem_ctrls02.numWriteReadTurnArounds            0                       # Number of turnarounds from WRITE to READ
system.mem_ctrls02.pageHitRate                    nan                       # Row buffer hit rate, read and write combined
system.mem_ctrls02.peakBW                    12800.00                       # Theoretical peak bandwidth in MiByte/s
system.mem_ctrls02.perBankRdBursts::0               0                       # Per bank write bursts
system.mem_ctrls02.perBankRdBursts::1               0                       # Per bank write bursts
system.mem_ctrls02.perBankRdBursts::2               0                       # Per bank write bursts
system.mem_ctrls02.perBankRdBursts::3               0                       # Per bank write bursts
system.mem_ctrls02.perBankRdBursts::4               0                       # Per bank write bursts
system.mem_ctrls02.perBankRdBursts::5               0                       # Per bank write bursts
system.mem_ctrls02.perBankRdBursts::6               0                       # Per bank write bursts
system.mem_ctrls02.perBankRdBursts::7               0                       # Per bank write bursts
system.mem_ctrls02.perBankRdBursts::8               0                       # Per bank write bursts
system.mem_ctrls02.perBankRdBursts::9               0                       # Per bank write bursts
system.mem_ctrls02.perBankRdBursts::10              0                       # Per bank write bursts
system.mem_ctrls02.perBankRdBursts::11              0                       # Per bank write bursts
system.mem_ctrls02.perBankRdBursts::12              0                       # Per bank write bursts
system.mem_ctrls02.perBankRdBursts::13              0                       # Per bank write bursts
system.mem_ctrls02.perBankRdBursts::14              0                       # Per bank write bursts
system.mem_ctrls02.perBankRdBursts::15              0                       # Per bank write bursts
system.mem_ctrls02.perBankWrBursts::0               0                       # Per bank write bursts
system.mem_ctrls02.perBankWrBursts::1               0                       # Per bank write bursts
system.mem_ctrls02.perBankWrBursts::2               0                       # Per bank write bursts
system.mem_ctrls02.perBankWrBursts::3               0                       # Per bank write bursts
system.mem_ctrls02.perBankWrBursts::4               0                       # Per bank write bursts
system.mem_ctrls02.perBankWrBursts::5               0                       # Per bank write bursts
system.mem_ctrls02.perBankWrBursts::6               0                       # Per bank write bursts
system.mem_ctrls02.perBankWrBursts::7               0                       # Per bank write bursts
system.mem_ctrls02.perBankWrBursts::8               0                       # Per bank write bursts
system.mem_ctrls02.perBankWrBursts::9               0                       # Per bank write bursts
system.mem_ctrls02.perBankWrBursts::10              0                       # Per bank write bursts
system.mem_ctrls02.perBankWrBursts::11              0                       # Per bank write bursts
system.mem_ctrls02.perBankWrBursts::12              0                       # Per bank write bursts
system.mem_ctrls02.perBankWrBursts::13              0                       # Per bank write bursts
system.mem_ctrls02.perBankWrBursts::14              0                       # Per bank write bursts
system.mem_ctrls02.perBankWrBursts::15              0                       # Per bank write bursts
system.mem_ctrls02.priorityMaxLatency    0.000000000000                       # per QoS priority maximum request to response latency (s)
system.mem_ctrls02.priorityMinLatency    0.000000000000                       # per QoS priority minimum request to response latency (s)
system.mem_ctrls02.pwrStateResidencyTicks::UNDEFINED 18446744073709551616                       # Cumulative time (in ticks) in various power states
system.mem_ctrls02.rdQLenPdf::0                     0                       # What read queue length does an incoming req see
system.mem_ctrls02.rdQLenPdf::1                     0                       # What read queue length does an incoming req see
system.mem_ctrls02.rdQLenPdf::2                     0                       # What read queue length does an incoming req see
system.mem_ctrls02.rdQLenPdf::3                     0                       # What read queue length does an incoming req see
system.mem_ctrls02.rdQLenPdf::4                     0                       # What read queue length does an incoming req see
system.mem_ctrls02.rdQLenPdf::5                     0                       # What read queue length does an incoming req see
system.mem_ctrls02.rdQLenPdf::6                     0                       # What read queue length does an incoming req see
system.mem_ctrls02.rdQLenPdf::7                     0                       # What read queue length does an incoming req see
system.mem_ctrls02.rdQLenPdf::8                     0                       # What read queue length does an incoming req see
system.mem_ctrls02.rdQLenPdf::9                     0                       # What read queue length does an incoming req see
system.mem_ctrls02.rdQLenPdf::10                    0                       # What read queue length does an incoming req see
system.mem_ctrls02.rdQLenPdf::11                    0                       # What read queue length does an incoming req see
system.mem_ctrls02.rdQLenPdf::12                    0                       # What read queue length does an incoming req see
system.mem_ctrls02.rdQLenPdf::13                    0                       # What read queue length does an incoming req see
system.mem_ctrls02.rdQLenPdf::14                    0                       # What read queue length does an incoming req see
system.mem_ctrls02.rdQLenPdf::15                    0                       # What read queue length does an incoming req see
system.mem_ctrls02.rdQLenPdf::16                    0                       # What read queue length does an incoming req see
system.mem_ctrls02.rdQLenPdf::17                    0                       # What read queue length does an incoming req see
system.mem_ctrls02.rdQLenPdf::18                    0                       # What read queue length does an incoming req see
system.mem_ctrls02.rdQLenPdf::19                    0                       # What read queue length does an incoming req see
system.mem_ctrls02.rdQLenPdf::20                    0                       # What read queue length does an incoming req see
system.mem_ctrls02.rdQLenPdf::21                    0                       # What read queue length does an incoming req see
system.mem_ctrls02.rdQLenPdf::22                    0                       # What read queue length does an incoming req see
system.mem_ctrls02.rdQLenPdf::23                    0                       # What read queue length does an incoming req see
system.mem_ctrls02.rdQLenPdf::24                    0                       # What read queue length does an incoming req see
system.mem_ctrls02.rdQLenPdf::25                    0                       # What read queue length does an incoming req see
system.mem_ctrls02.rdQLenPdf::26                    0                       # What read queue length does an incoming req see
system.mem_ctrls02.rdQLenPdf::27                    0                       # What read queue length does an incoming req see
system.mem_ctrls02.rdQLenPdf::28                    0                       # What read queue length does an incoming req see
system.mem_ctrls02.rdQLenPdf::29                    0                       # What read queue length does an incoming req see
system.mem_ctrls02.rdQLenPdf::30                    0                       # What read queue length does an incoming req see
system.mem_ctrls02.rdQLenPdf::31                    0                       # What read queue length does an incoming req see
system.mem_ctrls02.readBursts                       0                       # Number of DRAM read bursts, including those serviced by the write queue
system.mem_ctrls02.readPktSize::0                   0                       # Read request sizes (log2)
system.mem_ctrls02.readPktSize::1                   0                       # Read request sizes (log2)
system.mem_ctrls02.readPktSize::2                   0                       # Read request sizes (log2)
system.mem_ctrls02.readPktSize::3                   0                       # Read request sizes (log2)
system.mem_ctrls02.readPktSize::4                   0                       # Read request sizes (log2)
system.mem_ctrls02.readPktSize::5                   0                       # Read request sizes (log2)
system.mem_ctrls02.readPktSize::6                   0                       # Read request sizes (log2)
system.mem_ctrls02.readReqs                         0                       # Number of read requests accepted
system.mem_ctrls02.readRowHitRate                 nan                       # Row buffer hit rate for reads
system.mem_ctrls02.readRowHits                      0                       # Number of row buffer hits during reads
system.mem_ctrls02.servicedByWrQ                    0                       # Number of DRAM read bursts serviced by the write queue
system.mem_ctrls02.totBusLat                        0                       # Total ticks spent in databus transfers
system.mem_ctrls02.totGap                           0                       # Total gap between requests
system.mem_ctrls02.totMemAccLat                     0                       # Total ticks spent from burst creation until serviced by the DRAM
system.mem_ctrls02.totQLat                          0                       # Total ticks spent queuing
system.mem_ctrls02.wrQLenPdf::0                     0                       # What write queue length does an incoming req see
system.mem_ctrls02.wrQLenPdf::1                     0                       # What write queue length does an incoming req see
system.mem_ctrls02.wrQLenPdf::2                     0                       # What write queue length does an incoming req see
system.mem_ctrls02.wrQLenPdf::3                     0                       # What write queue length does an incoming req see
system.mem_ctrls02.wrQLenPdf::4                     0                       # What write queue length does an incoming req see
system.mem_ctrls02.wrQLenPdf::5                     0                       # What write queue length does an incoming req see
system.mem_ctrls02.wrQLenPdf::6                     0                       # What write queue length does an incoming req see
system.mem_ctrls02.wrQLenPdf::7                     0                       # What write queue length does an incoming req see
system.mem_ctrls02.wrQLenPdf::8                     0                       # What write queue length does an incoming req see
system.mem_ctrls02.wrQLenPdf::9                     0                       # What write queue length does an incoming req see
system.mem_ctrls02.wrQLenPdf::10                    0                       # What write queue length does an incoming req see
system.mem_ctrls02.wrQLenPdf::11                    0                       # What write queue length does an incoming req see
system.mem_ctrls02.wrQLenPdf::12                    0                       # What write queue length does an incoming req see
system.mem_ctrls02.wrQLenPdf::13                    0                       # What write queue length does an incoming req see
system.mem_ctrls02.wrQLenPdf::14                    0                       # What write queue length does an incoming req see
system.mem_ctrls02.wrQLenPdf::15                    0                       # What write queue length does an incoming req see
system.mem_ctrls02.wrQLenPdf::16                    0                       # What write queue length does an incoming req see
system.mem_ctrls02.wrQLenPdf::17                    0                       # What write queue length does an incoming req see
system.mem_ctrls02.wrQLenPdf::18                    0                       # What write queue length does an incoming req see
system.mem_ctrls02.wrQLenPdf::19                    0                       # What write queue length does an incoming req see
system.mem_ctrls02.wrQLenPdf::20                    0                       # What write queue length does an incoming req see
system.mem_ctrls02.wrQLenPdf::21                    0                       # What write queue length does an incoming req see
system.mem_ctrls02.wrQLenPdf::22                    0                       # What write queue length does an incoming req see
system.mem_ctrls02.wrQLenPdf::23                    0                       # What write queue length does an incoming req see
system.mem_ctrls02.wrQLenPdf::24                    0                       # What write queue length does an incoming req see
system.mem_ctrls02.wrQLenPdf::25                    0                       # What write queue length does an incoming req see
system.mem_ctrls02.wrQLenPdf::26                    0                       # What write queue length does an incoming req see
system.mem_ctrls02.wrQLenPdf::27                    0                       # What write queue length does an incoming req see
system.mem_ctrls02.wrQLenPdf::28                    0                       # What write queue length does an incoming req see
system.mem_ctrls02.wrQLenPdf::29                    0                       # What write queue length does an incoming req see
system.mem_ctrls02.wrQLenPdf::30                    0                       # What write queue length does an incoming req see
system.mem_ctrls02.wrQLenPdf::31                    0                       # What write queue length does an incoming req see
system.mem_ctrls02.wrQLenPdf::32                    0                       # What write queue length does an incoming req see
system.mem_ctrls02.wrQLenPdf::33                    0                       # What write queue length does an incoming req see
system.mem_ctrls02.wrQLenPdf::34                    0                       # What write queue length does an incoming req see
system.mem_ctrls02.wrQLenPdf::35                    0                       # What write queue length does an incoming req see
system.mem_ctrls02.wrQLenPdf::36                    0                       # What write queue length does an incoming req see
system.mem_ctrls02.wrQLenPdf::37                    0                       # What write queue length does an incoming req see
system.mem_ctrls02.wrQLenPdf::38                    0                       # What write queue length does an incoming req see
system.mem_ctrls02.wrQLenPdf::39                    0                       # What write queue length does an incoming req see
system.mem_ctrls02.wrQLenPdf::40                    0                       # What write queue length does an incoming req see
system.mem_ctrls02.wrQLenPdf::41                    0                       # What write queue length does an incoming req see
system.mem_ctrls02.wrQLenPdf::42                    0                       # What write queue length does an incoming req see
system.mem_ctrls02.wrQLenPdf::43                    0                       # What write queue length does an incoming req see
system.mem_ctrls02.wrQLenPdf::44                    0                       # What write queue length does an incoming req see
system.mem_ctrls02.wrQLenPdf::45                    0                       # What write queue length does an incoming req see
system.mem_ctrls02.wrQLenPdf::46                    0                       # What write queue length does an incoming req see
system.mem_ctrls02.wrQLenPdf::47                    0                       # What write queue length does an incoming req see
system.mem_ctrls02.wrQLenPdf::48                    0                       # What write queue length does an incoming req see
system.mem_ctrls02.wrQLenPdf::49                    0                       # What write queue length does an incoming req see
system.mem_ctrls02.wrQLenPdf::50                    0                       # What write queue length does an incoming req see
system.mem_ctrls02.wrQLenPdf::51                    0                       # What write queue length does an incoming req see
system.mem_ctrls02.wrQLenPdf::52                    0                       # What write queue length does an incoming req see
system.mem_ctrls02.wrQLenPdf::53                    0                       # What write queue length does an incoming req see
system.mem_ctrls02.wrQLenPdf::54                    0                       # What write queue length does an incoming req see
system.mem_ctrls02.wrQLenPdf::55                    0                       # What write queue length does an incoming req see
system.mem_ctrls02.wrQLenPdf::56                    0                       # What write queue length does an incoming req see
system.mem_ctrls02.wrQLenPdf::57                    0                       # What write queue length does an incoming req see
system.mem_ctrls02.wrQLenPdf::58                    0                       # What write queue length does an incoming req see
system.mem_ctrls02.wrQLenPdf::59                    0                       # What write queue length does an incoming req see
system.mem_ctrls02.wrQLenPdf::60                    0                       # What write queue length does an incoming req see
system.mem_ctrls02.wrQLenPdf::61                    0                       # What write queue length does an incoming req see
system.mem_ctrls02.wrQLenPdf::62                    0                       # What write queue length does an incoming req see
system.mem_ctrls02.wrQLenPdf::63                    0                       # What write queue length does an incoming req see
system.mem_ctrls02.writeBursts                      0                       # Number of DRAM write bursts, including those merged in the write queue
system.mem_ctrls02.writePktSize::0                  0                       # Write request sizes (log2)
system.mem_ctrls02.writePktSize::1                  0                       # Write request sizes (log2)
system.mem_ctrls02.writePktSize::2                  0                       # Write request sizes (log2)
system.mem_ctrls02.writePktSize::3                  0                       # Write request sizes (log2)
system.mem_ctrls02.writePktSize::4                  0                       # Write request sizes (log2)
system.mem_ctrls02.writePktSize::5                  0                       # Write request sizes (log2)
system.mem_ctrls02.writePktSize::6                  0                       # Write request sizes (log2)
system.mem_ctrls02.writeReqs                        0                       # Number of write requests accepted
system.mem_ctrls02.writeRowHitRate                nan                       # Row buffer hit rate for writes
system.mem_ctrls02.writeRowHits                     0                       # Number of row buffer hits during writes
system.mem_ctrls02_0.actBackEnergy             112176                       # Energy for active background per rank (pJ)
system.mem_ctrls02_0.actEnergy                      0                       # Energy for activate commands per rank (pJ)
system.mem_ctrls02_0.actPowerDownEnergy             0                       # Energy for active power-down per rank (pJ)
system.mem_ctrls02_0.averagePower            0.000000                       # Core power per rank (mW)
system.mem_ctrls02_0.memoryStateTime::IDLE         7792                       # Time in different power states
system.mem_ctrls02_0.memoryStateTime::REF          260                       # Time in different power states
system.mem_ctrls02_0.memoryStateTime::SREF 18446744073709535232                       # Time in different power states
system.mem_ctrls02_0.memoryStateTime::PRE_PDN         7526                       # Time in different power states
system.mem_ctrls02_0.memoryStateTime::ACT            0                       # Time in different power states
system.mem_ctrls02_0.memoryStateTime::ACT_PDN            0                       # Time in different power states
system.mem_ctrls02_0.preBackEnergy            2997504                       # Energy for precharge background per rank (pJ)
[...]
system.ruby.network.netifs175.pwrStateResidencyTicks::UNDEFINED 18446744073709551616                       # Cumulative time (in ticks) in various power states
system.ruby.network.netifs176.pwrStateResidencyTicks::UNDEFINED 18446744073709551616                       # Cumulative time (in ticks) in various power states
system.ruby.network.netifs177.pwrStateResidencyTicks::UNDEFINED 18446744073709551616                       # Cumulative time (in ticks) in various power states
system.ruby.network.netifs178.pwrStateResidencyTicks::UNDEFINED 18446744073709551616                       # Cumulative time (in ticks) in various power states
system.ruby.network.netifs179.pwrStateResidencyTicks::UNDEFINED 18446744073709551616                       # Cumulative time (in ticks) in various power states
system.ruby.network.netifs180.pwrStateResidencyTicks::UNDEFINED 18446744073709551616                       # Cumulative time (in ticks) in various power states
system.ruby.network.netifs181.pwrStateResidencyTicks::UNDEFINED 18446744073709551616                       # Cumulative time (in ticks) in various power states
system.ruby.network.netifs182.pwrStateResidencyTicks::UNDEFINED 18446744073709551616                       # Cumulative time (in ticks) in various power states
system.ruby.network.netifs183.pwrStateResidencyTicks::UNDEFINED 18446744073709551616                       # Cumulative time (in ticks) in various power states
system.ruby.network.netifs184.pwrStateResidencyTicks::UNDEFINED 18446744073709551616                       # Cumulative time (in ticks) in various power states
system.ruby.network.netifs185.pwrStateResidencyTicks::UNDEFINED 18446744073709551616                       # Cumulative time (in ticks) in various power states
system.ruby.network.netifs186.pwrStateResidencyTicks::UNDEFINED 18446744073709551616                       # Cumulative time (in ticks) in various power states
system.ruby.network.netifs187.pwrStateResidencyTicks::UNDEFINED 18446744073709551616                       # Cumulative time (in ticks) in various power states
system.ruby.network.netifs188.pwrStateResidencyTicks::UNDEFINED 18446744073709551616                       # Cumulative time (in ticks) in various power states
system.ruby.network.netifs189.pwrStateResidencyTicks::UNDEFINED 18446744073709551616                       # Cumulative time (in ticks) in various power states
system.ruby.network.netifs190.pwrStateResidencyTicks::UNDEFINED 18446744073709551616                       # Cumulative time (in ticks) in various power states
system.ruby.network.netifs191.pwrStateResidencyTicks::UNDEFINED 18446744073709551616                       # Cumulative time (in ticks) in various power states
system.ruby.network.netifs192.pwrStateResidencyTicks::UNDEFINED 18446744073709551616                       # Cumulative time (in ticks) in various power states
system.ruby.network.netifs193.pwrStateResidencyTicks::UNDEFINED 18446744073709551616                       # Cumulative time (in ticks) in various power states
system.ruby.network.netifs194.pwrStateResidencyTicks::UNDEFINED 18446744073709551616                       # Cumulative time (in ticks) in various power states
system.ruby.network.netifs195.pwrStateResidencyTicks::UNDEFINED 18446744073709551616                       # Cumulative time (in ticks) in various power states
system.ruby.network.netifs196.pwrStateResidencyTicks::UNDEFINED 18446744073709551616                       # Cumulative time (in ticks) in various power states
system.ruby.network.netifs197.pwrStateResidencyTicks::UNDEFINED 18446744073709551616                       # Cumulative time (in ticks) in various power states
system.ruby.network.netifs198.pwrStateResidencyTicks::UNDEFINED 18446744073709551616                       # Cumulative time (in ticks) in various power states
system.ruby.network.netifs199.pwrStateResidencyTicks::UNDEFINED 18446744073709551616                       # Cumulative time (in ticks) in various power states
system.ruby.network.netifs200.pwrStateResidencyTicks::UNDEFINED 18446744073709551616                       # Cumulative time (in ticks) in various power states
system.ruby.network.netifs201.pwrStateResidencyTicks::UNDEFINED 18446744073709551616                       # Cumulative time (in ticks) in various power states
system.ruby.network.netifs202.pwrStateResidencyTicks::UNDEFINED 18446744073709551616                       # Cumulative time (in ticks) in various power states
system.ruby.network.netifs203.pwrStateResidencyTicks::UNDEFINED 18446744073709551616                       # Cumulative time (in ticks) in various power states
system.ruby.network.netifs204.pwrStateResidencyTicks::UNDEFINED 18446744073709551616                       # Cumulative time (in ticks) in various power states
system.ruby.network.netifs205.pwrStateResidencyTicks::UNDEFINED 18446744073709551616                       # Cumulative time (in ticks) in various power states
system.ruby.network.netifs206.pwrStateResidencyTicks::UNDEFINED 18446744073709551616                       # Cumulative time (in ticks) in various power states
system.ruby.network.netifs207.pwrStateResidencyTicks::UNDEFINED 18446744073709551616                       # Cumulative time (in ticks) in various power states
system.ruby.network.netifs208.pwrStateResidencyTicks::UNDEFINED 18446744073709551616                       # Cumulative time (in ticks) in various power states
system.ruby.network.netifs209.pwrStateResidencyTicks::UNDEFINED 18446744073709551616                       # Cumulative time (in ticks) in various power states
system.ruby.network.netifs210.pwrStateResidencyTicks::UNDEFINED 18446744073709551616                       # Cumulative time (in ticks) in various power states
system.ruby.network.netifs211.pwrStateResidencyTicks::UNDEFINED 18446744073709551616                       # Cumulative time (in ticks) in various power states
system.ruby.network.netifs212.pwrStateResidencyTicks::UNDEFINED 18446744073709551616                       # Cumulative time (in ticks) in various power states
system.ruby.network.netifs213.pwrStateResidencyTicks::UNDEFINED 18446744073709551616                       # Cumulative time (in ticks) in various power states
system.ruby.network.netifs214.pwrStateResidencyTicks::UNDEFINED 18446744073709551616                       # Cumulative time (in ticks) in various power states
system.ruby.network.netifs215.pwrStateResidencyTicks::UNDEFINED 18446744073709551616                       # Cumulative time (in ticks) in various power states
system.ruby.network.netifs216.pwrStateResidencyTicks::UNDEFINED 18446744073709551616                       # Cumulative time (in ticks) in various power states
system.ruby.network.netifs217.pwrStateResidencyTicks::UNDEFINED 18446744073709551616                       # Cumulative time (in ticks) in various power states
system.ruby.network.netifs218.pwrStateResidencyTicks::UNDEFINED 18446744073709551616                       # Cumulative time (in ticks) in various power states
system.ruby.network.netifs219.pwrStateResidencyTicks::UNDEFINED 18446744073709551616                       # Cumulative time (in ticks) in various power states
system.ruby.network.netifs220.pwrStateResidencyTicks::UNDEFINED 18446744073709551616                       # Cumulative time (in ticks) in various power states
system.ruby.network.netifs221.pwrStateResidencyTicks::UNDEFINED 18446744073709551616                       # Cumulative time (in ticks) in various power states
system.ruby.network.netifs222.pwrStateResidencyTicks::UNDEFINED 18446744073709551616                       # Cumulative time (in ticks) in various power states
system.ruby.network.netifs223.pwrStateResidencyTicks::UNDEFINED 18446744073709551616                       # Cumulative time (in ticks) in various power states
system.ruby.network.packet_network_latency |      103168                       |       32832                       |       32832                       |       32832                       |       32832                       |      196992                       |      196992                      
system.ruby.network.packet_queueing_latency |     4343808                       |      902144                       |      985472                       |      957696                       |      929920                       |     6842496                       |     7009152                      
system.ruby.network.packets_injected     |         256     20.00%     20.00% |          64      5.00%     25.00% |          64      5.00%     30.00% |          64      5.00%     35.00% |          64      5.00%     40.00% |         384     30.00%     70.00% |         384     30.00%    100.00%
system.ruby.network.packets_injected::total         1280                      
system.ruby.network.packets_received     |         256     20.00%     20.00% |          64      5.00%     25.00% |          64      5.00%     30.00% |          64      5.00%     35.00% |          64      5.00%     40.00% |         384     30.00%     70.00% |         384     30.00%    100.00%
system.ruby.network.packets_received::total         1280                      
system.ruby.network.pwrStateResidencyTicks::UNDEFINED 18446744073709551616                       # Cumulative time (in ticks) in various power states
system.ruby.network.routers00.buffer_reads         2560                      
system.ruby.network.routers00.buffer_writes         2560                      
system.ruby.network.routers00.crossbar_activity         2560                      
system.ruby.network.routers00.pwrStateResidencyTicks::UNDEFINED 18446744073709551616                       # Cumulative time (in ticks) in various power states
system.ruby.network.routers00.sw_input_arbiter_activity         2560                      
system.ruby.network.routers00.sw_output_arbiter_activity         2560                      
system.ruby.network.routers01.buffer_reads         2560                      
system.ruby.network.routers01.buffer_writes         2560                      
system.ruby.network.routers01.crossbar_activity         2560                      
system.ruby.network.routers01.pwrStateResidencyTicks::UNDEFINED 18446744073709551616                       # Cumulative time (in ticks) in various power states
system.ruby.network.routers01.sw_input_arbiter_activity         2560                      
system.ruby.network.routers01.sw_output_arbiter_activity         2560                      
system.ruby.network.routers02.buffer_reads         2560                      
system.ruby.network.routers02.buffer_writes         2560                      
system.ruby.network.routers02.crossbar_activity         2560                      
system.ruby.network.routers02.pwrStateResidencyTicks::UNDEFINED 18446744073709551616                       # Cumulative time (in ticks) in various power states
system.ruby.network.routers02.sw_input_arbiter_activity         2560                      
system.ruby.network.routers02.sw_output_arbiter_activity         2560                      
system.ruby.network.routers03.buffer_reads         2560                      
system.ruby.network.routers03.buffer_writes         2560                      
system.ruby.network.routers03.crossbar_activity         2560                      
system.ruby.network.routers03.pwrStateResidencyTicks::UNDEFINED 18446744073709551616                       # Cumulative time (in ticks) in various power states
system.ruby.network.routers03.sw_input_arbiter_activity         2560                      
system.ruby.network.routers03.sw_output_arbiter_activity         2560                      
system.ruby.network.routers04.buffer_reads         2560                      
system.ruby.network.routers04.buffer_writes         2560                      
system.ruby.network.routers04.crossbar_activity         2560                      
system.ruby.network.routers04.pwrStateResidencyTicks::UNDEFINED 18446744073709551616                       # Cumulative time (in ticks) in various power states
system.ruby.network.routers04.sw_input_arbiter_activity         2560                      
system.ruby.network.routers04.sw_output_arbiter_activity         2560                      
system.ruby.network.routers05.buffer_reads         2560                      
system.ruby.network.routers05.buffer_writes         2560                      
system.ruby.network.routers05.crossbar_activity         2560                      
system.ruby.network.routers05.pwrStateResidencyTicks::UNDEFINED 18446744073709551616                       # Cumulative time (in ticks) in various power states
system.ruby.network.routers05.sw_input_arbiter_activity         2560                      
system.ruby.network.routers05.sw_output_arbiter_activity         2560                      
system.ruby.network.routers06.buffer_reads         2560                      
system.ruby.network.routers06.buffer_writes         2560                      
system.ruby.network.routers06.crossbar_activity         2560                      
system.ruby.network.routers06.pwrStateResidencyTicks::UNDEFINED 18446744073709551616                       # Cumulative time (in ticks) in various power states
system.ruby.network.routers06.sw_input_arbiter_activity         2560                      
system.ruby.network.routers06.sw_output_arbiter_activity         2560                      
system.ruby.network.routers07.buffer_reads         2560                      
system.ruby.network.routers07.buffer_writes         2560                      
system.ruby.network.routers07.crossbar_activity         2560                      
system.ruby.network.routers07.pwrStateResidencyTicks::UNDEFINED 18446744073709551616                       # Cumulative time (in ticks) in various power states
system.ruby.network.routers07.sw_input_arbiter_activity         2560                      
system.ruby.network.routers07.sw_output_arbiter_activity         2560                      
system.ruby.network.routers08.buffer_reads         2560                      
system.ruby.network.routers08.buffer_writes         2560                      
system.ruby.network.routers08.crossbar_activity         2560                      
system.ruby.network.routers08.pwrStateResidencyTicks::UNDEFINED 18446744073709551616                       # Cumulative time (in ticks) in various power states
system.ruby.network.routers08.sw_input_arbiter_activity         2560                      
system.ruby.network.routers08.sw_output_arbiter_activity         2560                      
system.ruby.network.routers09.buffer_reads         2560                      
system.ruby.network.routers09.buffer_writes         2560                      
system.ruby.network.routers09.crossbar_activity         2560                      
system.ruby.network.routers09.pwrStateResidencyTicks::UNDEFINED 18446744073709551616                       # Cumulative time (in ticks) in various power states
system.ruby.network.routers09.sw_input_arbiter_activity         2560                      
system.ruby.network.routers09.sw_output_arbiter_activity         2560                      
system.ruby.network.routers10.buffer_reads         2560                      
system.ruby.network.routers10.buffer_writes         2560                      
system.ruby.network.routers10.crossbar_activity         2560                      
system.ruby.network.routers10.pwrStateResidencyTicks::UNDEFINED 18446744073709551616                       # Cumulative time (in ticks) in various power states
system.ruby.network.routers10.sw_input_arbiter_activity         2560                      
system.ruby.network.routers10.sw_output_arbiter_activity         2560                      
system.ruby.network.routers11.buffer_reads         2560                      
system.ruby.network.routers11.buffer_writes         2560                      
system.ruby.network.routers11.crossbar_activity         2560                      
system.ruby.network.routers11.pwrStateResidencyTicks::UNDEFINED 18446744073709551616                       # Cumulative time (in ticks) in various power states
system.ruby.network.routers11.sw_input_arbiter_activity         2560                      
system.ruby.network.routers11.sw_output_arbiter_activity         2560                      
system.ruby.network.routers12.buffer_reads         2560                      
system.ruby.network.routers12.buffer_writes         2560                      
system.ruby.network.routers12.crossbar_activity         2560                      
system.ruby.network.routers12.pwrStateResidencyTicks::UNDEFINED 18446744073709551616                       # Cumulative time (in ticks) in various power states
system.ruby.network.routers12.sw_input_arbiter_activity         2560                      
system.ruby.network.routers12.sw_output_arbiter_activity         2560                      
system.ruby.network.routers13.buffer_reads         2560                      
system.ruby.network.routers13.buffer_writes         2560                      
system.ruby.network.routers13.crossbar_activity         2560                      
system.ruby.network.routers13.pwrStateResidencyTicks::UNDEFINED 18446744073709551616                       # Cumulative time (in ticks) in various power states
system.ruby.network.routers13.sw_input_arbiter_activity         2560                      
system.ruby.network.routers13.sw_output_arbiter_activity         2560                      
system.ruby.network.routers14.buffer_reads         2560                      
system.ruby.network.routers14.buffer_writes         2560                      
system.ruby.network.routers14.crossbar_activity         2560                      
system.ruby.network.routers14.pwrStateResidencyTicks::UNDEFINED 18446744073709551616                       # Cumulative time (in ticks) in various power states
system.ruby.network.routers14.sw_input_arbiter_activity         2560                      
system.ruby.network.routers14.sw_output_arbiter_activity         2560                      
system.ruby.network.routers15.buffer_reads         2560                      
system.ruby.network.routers15.buffer_writes         2560                      
system.ruby.network.routers15.crossbar_activity         2560                      
system.ruby.network.routers15.pwrStateResidencyTicks::UNDEFINED 18446744073709551616                       # Cumulative time (in ticks) in various power states
system.ruby.network.routers15.sw_input_arbiter_activity         2560                      
system.ruby.network.routers15.sw_output_arbiter_activity         2560                      
system.ruby.outstanding_req_hist_seqr::bucket_size            1                      
system.ruby.outstanding_req_hist_seqr::max_bucket            9                      
system.ruby.outstanding_req_hist_seqr::samples           16                      
system.ruby.outstanding_req_hist_seqr::mean            1                      
system.ruby.outstanding_req_hist_seqr::gmean            1                      
system.ruby.outstanding_req_hist_seqr    |           0      0.00%      0.00% |          16    100.00%    100.00% |           0      0.00%    100.00% |           0      0.00%    100.00% |           0      0.00%    100.00% |           0      0.00%    100.00% |           0      0.00%    100.00% |           0      0.00%    100.00% |           0      0.00%    100.00% |           0      0.00%    100.00%
system.ruby.outstanding_req_hist_seqr::total           16                      
system.ruby.pwrStateResidencyTicks::UNDEFINED 18446744073709551616                       # Cumulative time (in ticks) in various power states
system.sys_port_proxy.pwrStateResidencyTicks::UNDEFINED 18446744073709551616                       # Cumulative time (in ticks) in various power states
system.voltage_domain.voltage                       1                       # Voltage in Volts

---------- End Simulation Statistics   ----------
