
---------- Begin Simulation Statistics ----------
final_tick                                      22038                       # Number of ticks from beginning of simulation (restored from checkpoints and never reset)
host_mem_usage                                1352128                       # Number of bytes of host memory used
host_seconds                                    26.32                       # Real time elapsed on the host
host_tick_rate                                    837                       # Simulator tick rate (ticks/s)
sim_freq                                   1000000000                       # Frequency of simulated ticks
sim_seconds                                  0.000022                       # Number of seconds simulated
sim_ticks                                       22038                       # Number of ticks simulated
system.clk_domain.clock                             1                       # Clock period in ticks
system.cpu0.pwrStateResidencyTicks::UNDEFINED        22038                       # Cumulative time (in ticks) in various power states
system.cpu1.pwrStateResidencyTicks::UNDEFINED        22038                       # Cumulative time (in ticks) in various power states
system.cpu2.pwrStateResidencyTicks::UNDEFINED        22038                       # Cumulative time (in ticks) in various power states
system.cpu3.pwrStateResidencyTicks::UNDEFINED        22038                       # Cumulative time (in ticks) in various power states
system.cpu4.pwrStateResidencyTicks::UNDEFINED        22038                       # Cumulative time (in ticks) in various power states
system.cpu5.pwrStateResidencyTicks::UNDEFINED        22038                       # Cumulative time (in ticks) in various power states
system.cpu6.pwrStateResidencyTicks::UNDEFINED        22038                       # Cumulative time (in ticks) in various power states
system.cpu7.pwrStateResidencyTicks::UNDEFINED        22038                       # Cumulative time (in ticks) in various power states
system.mem_ctrls0.avgBusLat                       nan                       # Average bus latency per DRAM burst
system.mem_ctrls0.avgGap                          nan                       # Average gap between requests
system.mem_ctrls0.avgMemAccLat                    nan                       # Average memory access latency per DRAM burst
system.mem_ctrls0.avgQLat                         nan                       # Average queueing delay per DRAM burst
system.mem_ctrls0.avgRdBW                        0.00                       # Average DRAM read bandwidth in MiByte/s
system.mem_ctrls0.avgRdBWSys                     0.00                       # Average system read bandwidth in MiByte/s
system.mem_ctrls0.avgRdQLen                      0.00                       # Average read queue length when enqueuing
system.mem_ctrls0.avgWrBW                        0.00                       # Average achieved write bandwidth in MiByte/s
system.mem_ctrls0.avgWrBWSys                     0.00                       # Average system write bandwidth in MiByte/s
system.mem_ctrls0.avgWrQLen                      0.00                       # Average write queue length when enqueuing
system.mem_ctrls0.busUtil                        0.00                       # Data bus utilization in percentage
system.mem_ctrls0.busUtilRead                    0.00                       # Data bus utilization in percentage for reads
system.mem_ctrls0.busUtilWrite                   0.00                       # Data bus utilization in percentage for writes
system.mem_ctrls0.bytesReadDRAM                     0                       # Total number of bytes read from DRAM
system.mem_ctrls0.bytesReadSys                      0                       # Total read bytes from the system interface side
system.mem_ctrls0.bytesReadWrQ                      0                       # Total number of bytes read from write queue
system.mem_ctrls0.bytesWritten                      0                       # Total number of bytes written to DRAM
system.mem_ctrls0.bytesWrittenSys                   0                       # Total written bytes from the system interface side
system.mem_ctrls0.mergedWrBursts                    0                       # Number of DRAM write bursts merged with an existing one
system.mem_ctrls0.neitherReadNorWriteReqs            0                       # Number of requests that are neither read nor write
system.mem_ctrls0.numRdRetry                        0                       # Number of times read queue was full causing retry
system.mem_ctrls0.numReadWriteTurnArounds            0                       # Number of turnarounds from READ to WRITE
system.mem_ctrls0.numStayReadState                  2                       # Number of times bus staying in READ state
system.mem_ctrls0.numStayWriteState                 0                       # Number of times bus staying in WRITE state
system.mem_ctrls0.numWrRetry                        0                       # Number of times write queue was full causing retry
system.mem_ctrls0.numWriteReadTurnArounds            0                       # Number of turnarounds from WRITE to READ
system.mem_ctrls0.pageHitRate                     nan                       # Row buffer hit rate, read and write combined
system.mem_ctrls0.peakBW                     12800.00                       # Theoretical peak bandwidth in MiByte/s
system.mem_ctrls0.perBankRdBursts::0                0                       # Per bank write bursts
system.mem_ctrls0.perBankRdBursts::1                0                       # Per bank write bursts
system.mem_ctrls0.perBankRdBursts::2                0                       # Per bank write bursts
system.mem_ctrls0.perBankRdBursts::3                0                       # Per bank write bursts
system.mem_ctrls0.perBankRdBursts::4                0                       # Per bank write bursts
system.mem_ctrls0.perBankRdBursts::5                0                       # Per bank write bursts
system.mem_ctrls0.perBankRdBursts::6                0                       # Per bank write bursts
system.mem_ctrls0.perBankRdBursts::7                0                       # Per bank write bursts
system.mem_ctrls0.perBankRdBursts::8                0                       # Per bank write bursts
system.mem_ctrls0.perBankRdBursts::9                0                       # Per bank write bursts
system.mem_ctrls0.perBankRdBursts::10               0                       # Per bank write bursts
system.mem_ctrls0.perBankRdBursts::11               0                       # Per bank write bursts
system.mem_ctrls0.perBankRdBursts::12               0                       # Per bank write bursts
system.mem_ctrls0.perBankRdBursts::13               0                       # Per bank write bursts
system.mem_ctrls0.perBankRdBursts::14               0                       # Per bank write bursts
system.mem_ctrls0.perBankRdBursts::15               0                       # Per bank write bursts
system.mem_ctrls0.perBankWrBursts::0                0                       # Per bank write bursts
system.mem_ctrls0.perBankWrBursts::1                0                       # Per bank write bursts
system.mem_ctrls0.perBankWrBursts::2                0                       # Per bank write bursts
system.mem_ctrls0.perBankWrBursts::3                0                       # Per bank write bursts
system.mem_ctrls0.perBankWrBursts::4                0                       # Per bank write bursts
system.mem_ctrls0.perBankWrBursts::5                0                       # Per bank write bursts
system.mem_ctrls0.perBankWrBursts::6                0                       # Per bank write bursts
system.mem_ctrls0.perBankWrBursts::7                0                       # Per bank write bursts
system.mem_ctrls0.perBankWrBursts::8                0                       # Per bank write bursts
system.mem_ctrls0.perBankWrBursts::9                0                       # Per bank write bursts
system.mem_ctrls0.perBankWrBursts::10               0                       # Per bank write bursts
system.mem_ctrls0.perBankWrBursts::11               0                       # Per bank write bursts
system.mem_ctrls0.perBankWrBursts::12               0                       # Per bank write bursts
system.mem_ctrls0.perBankWrBursts::13               0                       # Per bank write bursts
system.mem_ctrls0.perBankWrBursts::14               0                       # Per bank write bursts
system.mem_ctrls0.perBankWrBursts::15               0                       # Per bank write bursts
system.mem_ctrls0.priorityMaxLatency     0.000000000000                       # per QoS priority maximum request to response latency (s)
system.mem_ctrls0.priorityMinLatency     0.000000000000                       # per QoS priority minimum request to response latency (s)
system.mem_ctrls0.pwrStateResidencyTicks::UNDEFINED        22038                       # Cumulative time (in ticks) in various power states
system.mem_ctrls0.rdQLenPdf::0                      0                       # What read queue length does an incoming req see
system.mem_ctrls0.rdQLenPdf::1                      0                       # What read queue length does an incoming req see
system.mem_ctrls0.rdQLenPdf::2                      0                       # What read queue length does an incoming req see
system.mem_ctrls0.rdQLenPdf::3                      0                       # What read queue length does an incoming req see
system.mem_ctrls0.rdQLenPdf::4                      0                       # What read queue length does an incoming req see
system.mem_ctrls0.rdQLenPdf::5                      0                       # What read queue length does an incoming req see
system.mem_ctrls0.rdQLenPdf::6                      0                       # What read queue length does an incoming req see
system.mem_ctrls0.rdQLenPdf::7                      0                       # What read queue length does an incoming req see
system.mem_ctrls0.rdQLenPdf::8                      0                       # What read queue length does an incoming req see
system.mem_ctrls0.rdQLenPdf::9                      0                       # What read queue length does an incoming req see
system.mem_ctrls0.rdQLenPdf::10                     0                       # What read queue length does an incoming req see
system.mem_ctrls0.rdQLenPdf::11                     0                       # What read queue length does an incoming req see
system.mem_ctrls0.rdQLenPdf::12                     0                       # What read queue length does an incoming req see
system.mem_ctrls0.rdQLenPdf::13                     0                       # What read queue length does an incoming req see
system.mem_ctrls0.rdQLenPdf::14                     0                       # What read queue length does an incoming req see
system.mem_ctrls0.rdQLenPdf::15                     0                       # What read queue length does an incoming req see
system.mem_ctrls0.rdQLenPdf::16                     0                       # What read queue length does an incoming req see
system.mem_ctrls0.rdQLenPdf::17                     0                       # What read queue length does an incoming req see
system.mem_ctrls0.rdQLenPdf::18                     0                       # What read queue length does an incoming req see
system.mem_ctrls0.rdQLenPdf::19                     0                       # What read queue length does an incoming req see
system.mem_ctrls0.rdQLenPdf::20                     0                       # What read queue length does an incoming req see
system.mem_ctrls0.rdQLenPdf::21                     0                       # What read queue length does an incoming req see
system.mem_ctrls0.rdQLenPdf::22                     0                       # What read queue length does an incoming req see
system.mem_ctrls0.rdQLenPdf::23                     0                       # What read queue length does an incoming req see
system.mem_ctrls0.rdQLenPdf::24                     0                       # What read queue length does an incoming req see
system.mem_ctrls0.rdQLenPdf::25                     0                       # What read queue length does an incoming req see
system.mem_ctrls0.rdQLenPdf::26                     0                       # What read queue length does an incoming req see
system.mem_ctrls0.rdQLenPdf::27                     0                       # What read queue length does an incoming req see
system.mem_ctrls0.rdQLenPdf::28                     0                       # What read queue length does an incoming req see
system.mem_ctrls0.rdQLenPdf::29                     0                       # What read queue length does an incoming req see
system.mem_ctrls0.rdQLenPdf::30                     0                       # What read queue length does an incoming req see
system.mem_ctrls0.rdQLenPdf::31                     0                       # What read queue length does an incoming req see
system.mem_ctrls0.readBursts                        0                       # Number of DRAM read bursts, including those serviced by the write queue
system.mem_ctrls0.readPktSize::0                    0                       # Read request sizes (log2)
system.mem_ctrls0.readPktSize::1                    0                       # Read request sizes (log2)
system.mem_ctrls0.readPktSize::2                    0                       # Read request sizes (log2)
system.mem_ctrls0.readPktSize::3                    0                       # Read request sizes (log2)
system.mem_ctrls0.readPktSize::4                    0                       # Read request sizes (log2)
system.mem_ctrls0.readPktSize::5                    0                       # Read request sizes (log2)
system.mem_ctrls0.readPktSize::6                    0                       # Read request sizes (log2)
system.mem_ctrls0.readReqs                          0                       # Number of read requests accepted
system.mem_ctrls0.readRowHitRate                  nan                       # Row buffer hit rate for reads
system.mem_ctrls0.readRowHits                       0                       # Number of row buffer hits during reads
system.mem_ctrls0.servicedByWrQ                     0                       # Number of DRAM read bursts serviced by the write queue
system.mem_ctrls0.totBusLat                         0                       # Total ticks spent in databus transfers
system.mem_ctrls0.totGap                            0                       # Total gap between requests
system.mem_ctrls0.totMemAccLat                      0                       # Total ticks spent from burst creation until serviced by the DRAM
system.mem_ctrls0.totQLat                           0                       # Total ticks spent queuing
system.mem_ctrls0.wrQLenPdf::0                      0                       # What write queue length does an incoming req see
system.mem_ctrls0.wrQLenPdf::1                      0                       # What write queue length does an incoming req see
system.mem_ctrls0.wrQLenPdf::2                      0                       # What write queue length does an incoming req see
system.mem_ctrls0.wrQLenPdf::3                      0                       # What write queue length does an incoming req see
system.mem_ctrls0.wrQLenPdf::4                      0                       # What write queue length does an incoming req see
system.mem_ctrls0.wrQLenPdf::5                      0                       # What write queue length does an incoming req see
system.mem_ctrls0.wrQLenPdf::6                      0                       # What write queue length does an incoming req see
system.mem_ctrls0.wrQLenPdf::7                      0                       # What write queue length does an incoming req see
system.mem_ctrls0.wrQLenPdf::8                      0                       # What write queue length does an incoming req see
system.mem_ctrls0.wrQLenPdf::9                      0                       # What write queue length does an incoming req see
system.mem_ctrls0.wrQLenPdf::10                     0                       # What write queue length does an incoming req see
system.mem_ctrls0.wrQLenPdf::11                     0                       # What write queue length does an incoming req see
system.mem_ctrls0.wrQLenPdf::12                     0                       # What write queue length does an incoming req see
system.mem_ctrls0.wrQLenPdf::13                     0                       # What write queue length does an incoming req see
system.mem_ctrls0.wrQLenPdf::14                     0                       # What write queue length does an incoming req see
system.mem_ctrls0.wrQLenPdf::15                     0                       # What write queue length does an incoming req see
system.mem_ctrls0.wrQLenPdf::16                     0                       # What write queue length does an incoming req see
system.mem_ctrls0.wrQLenPdf::17                     0                       # What write queue length does an incoming req see
system.mem_ctrls0.wrQLenPdf::18                     0                       # What write queue length does an incoming req see
system.mem_ctrls0.wrQLenPdf::19                     0                       # What write queue length does an incoming req see
system.mem_ctrls0.wrQLenPdf::20                     0                       # What write queue length does an incoming req see
system.mem_ctrls0.wrQLenPdf::21                     0                       # What write queue length does an incoming req see
system.mem_ctrls0.wrQLenPdf::22                     0                       # What write queue length does an incoming req see
system.mem_ctrls0.wrQLenPdf::23                     0                       # What write queue length does an incoming req see
system.mem_ctrls0.wrQLenPdf::24                     0                       # What write queue length does an incoming req see
system.mem_ctrls0.wrQLenPdf::25                     0                       # What write queue length does an incoming req see
system.mem_ctrls0.wrQLenPdf::26                     0                       # What write queue length does an incoming req see
system.mem_ctrls0.wrQLenPdf::27                     0                       # What write queue length does an incoming req see
system.mem_ctrls0.wrQLenPdf::28                     0                       # What write queue length does an incoming req see
system.mem_ctrls0.wrQLenPdf::29                     0                       # What write queue length does an incoming req see
system.mem_ctrls0.wrQLenPdf::30                     0                       # What write queue length does an incoming req see
system.mem_ctrls0.wrQLenPdf::31                     0                       # What write queue length does an incoming req see
system.mem_ctrls0.wrQLenPdf::32                     0                       # What write queue length does an incoming req see
system.mem_ctrls0.wrQLenPdf::33                     0                       # What write queue length does an incoming req see
system.mem_ctrls0.wrQLenPdf::34                     0                       # What write queue length does an incoming req see
system.mem_ctrls0.wrQLenPdf::35                     0                       # What write queue length does an incoming req see
system.mem_ctrls0.wrQLenPdf::36                     0                       # What write queue length does an incoming req see
system.mem_ctrls0.wrQLenPdf::37                     0                       # What write queue length does an incoming req see
system.mem_ctrls0.wrQLenPdf::38                     0                       # What write queue length does an incoming req see
system.mem_ctrls0.wrQLenPdf::39                     0                       # What write queue length does an incoming req see
system.mem_ctrls0.wrQLenPdf::40                     0                       # What write queue length does an incoming req see
system.mem_ctrls0.wrQLenPdf::41                     0                       # What write queue length does an incoming req see
system.mem_ctrls0.wrQLenPdf::42                     0                       # What write queue length does an incoming req see
system.mem_ctrls0.wrQLenPdf::43                     0                       # What write queue length does an incoming req see
system.mem_ctrls0.wrQLenPdf::44                     0                       # What write queue length does an incoming req see
system.mem_ctrls0.wrQLenPdf::45                     0                       # What write queue length does an incoming req see
system.mem_ctrls0.wrQLenPdf::46                     0                       # What write queue length does an incoming req see
system.mem_ctrls0.wrQLenPdf::47                     0                       # What write queue length does an incoming req see
system.mem_ctrls0.wrQLenPdf::48                     0                       # What write queue length does an incoming req see
system.mem_ctrls0.wrQLenPdf::49                     0                       # What write queue length does an incoming req see
system.mem_ctrls0.wrQLenPdf::50                     0                       # What write queue length does an incoming req see
system.mem_ctrls0.wrQLenPdf::51                     0                       # What write queue length does an incoming req see
system.mem_ctrls0.wrQLenPdf::52                     0                       # What write queue length does an incoming req see
system.mem_ctrls0.wrQLenPdf::53                     0                       # What write queue length does an incoming req see
system.mem_ctrls0.wrQLenPdf::54                     0                       # What write queue length does an incoming req see
system.mem_ctrls0.wrQLenPdf::55                     0                       # What write queue length does an incoming req see
system.mem_ctrls0.wrQLenPdf::56                     0                       # What write queue length does an incoming req see
system.mem_ctrls0.wrQLenPdf::57                     0                       # What write queue length does an incoming req see
system.mem_ctrls0.wrQLenPdf::58                     0                       # What write queue length does an incoming req see
system.mem_ctrls0.wrQLenPdf::59                     0                       # What write queue length does an incoming req see
system.mem_ctrls0.wrQLenPdf::60                     0                       # What write queue length does an incoming req see
system.mem_ctrls0.wrQLenPdf::61                     0                       # What write queue length does an incoming req see
system.mem_ctrls0.wrQLenPdf::62                     0                       # What write queue length does an incoming req see
system.mem_ctrls0.wrQLenPdf::63                     0                       # What write queue length does an incoming req see
system.mem_ctrls0.writeBursts                       0                       # Number of DRAM write bursts, including those merged in the write queue
system.mem_ctrls0.writePktSize::0                   0                       # Write request sizes (log2)
system.mem_ctrls0.writePktSize::1                   0                       # Write request sizes (log2)
system.mem_ctrls0.writePktSize::2                   0                       # Write request sizes (log2)
system.mem_ctrls0.writePktSize::3                   0                       # Write request sizes (log2)
system.mem_ctrls0.writePktSize::4                   0                       # Write request sizes (log2)
system.mem_ctrls0.writePktSize::5                   0                       # Write request sizes (log2)
system.mem_ctrls0.writePktSize::6                   0                       # Write request sizes (log2)
system.mem_ctrls0.writeReqs                         0                       # Number of write requests accepted
system.mem_ctrls0.writeRowHitRate                 nan                       # Row buffer hit rate for writes
system.mem_ctrls0.writeRowHits                      0                       # Number of row buffer hits during writes
system.mem_ctrls0_0.actBackEnergy              112176                       # Energy for active background per rank (pJ)
system.mem_ctrls0_0.actEnergy                       0                       # Energy for activate commands per rank (pJ)
system.mem_ctrls0_0.actPowerDownEnergy              0                       # Energy for active power-down per rank (pJ)
system.mem_ctrls0_0.averagePower           395.541519                       # Core power per rank (mW)
system.mem_ctrls0_0.memoryStateTime::IDLE         7792                       # Time in different power states
system.mem_ctrls0_0.memoryStateTime::REF          260                       # Time in different power states
system.mem_ctrls0_0.memoryStateTime::SREF         6460                       # Time in different power states
system.mem_ctrls0_0.memoryStateTime::PRE_PDN         7526                       # Time in different power states
system.mem_ctrls0_0.memoryStateTime::ACT            0                       # Time in different power states
system.mem_ctrls0_0.memoryStateTime::ACT_PDN            0                       # Time in different power states
system.mem_ctrls0_0.preBackEnergy             2997504                       # Energy for precharge background per rank (pJ)
system.mem_ctrls0_0.preEnergy                       0                       # Energy for precharge commands per rank (pJ)
system.mem_ctrls0_0.prePowerDownEnergy        2889984                       # Energy for precharge power-down per rank (pJ)
system.mem_ctrls0_0.readEnergy                      0                       # Energy for read commands per rank (pJ)
system.mem_ctrls0_0.refreshEnergy        614640.000000                       # Energy for refresh commands per rank (pJ)
system.mem_ctrls0_0.selfRefreshEnergy         2102640                       # Energy for self refresh per rank (pJ)
system.mem_ctrls0_0.totalEnergy               8716944                       # Total energy per rank (pJ)
system.mem_ctrls0_0.totalIdleTime                7526                       # Total Idle time Per DRAM Rank
system.mem_ctrls0_0.writeEnergy                     0                       # Energy for write commands per rank (pJ)
system.mem_ctrls0_1.actBackEnergy              112176                       # Energy for active background per rank (pJ)
system.mem_ctrls0_1.actEnergy                       0                       # Energy for activate commands per rank (pJ)
system.mem_ctrls0_1.actPowerDownEnergy              0                       # Energy for active power-down per rank (pJ)
system.mem_ctrls0_1.averagePower           395.541519                       # Core power per rank (mW)
system.mem_ctrls0_1.memoryStateTime::IDLE         7792                       # Time in different power states
system.mem_ctrls0_1.memoryStateTime::REF          260                       # Time in different power states
system.mem_ctrls0_1.memoryStateTime::SREF         6460                       # Time in different power states
system.mem_ctrls0_1.memoryStateTime::PRE_PDN         7526                       # Time in different power states
system.mem_ctrls0_1.memoryStateTime::ACT            0                       # Time in different power states
system.mem_ctrls0_1.memoryStateTime::ACT_PDN            0                       # Time in different power states
system.mem_ctrls0_1.preBackEnergy             2997504                       # Energy for precharge background per rank (pJ)
system.mem_ctrls0_1.preEnergy                       0                       # Energy for precharge commands per rank (pJ)
system.mem_ctrls0_1.prePowerDownEnergy        2889984                       # Energy for precharge power-down per rank (pJ)
system.mem_ctrls0_1.readEnergy                      0                       # Energy for read commands per rank (pJ)
system.mem_ctrls0_1.refreshEnergy        614640.000000                       # Energy for refresh commands per rank (pJ)
system.mem_ctrls0_1.selfRefreshEnergy         2102640                       # Energy for self refresh per rank (pJ)
system.mem_ctrls0_1.totalEnergy               8716944                       # Total energy per rank (pJ)
system.mem_ctrls0_1.totalIdleTime                7526                       # Total Idle time Per DRAM Rank
system.mem_ctrls0_1.writeEnergy                     0                       # Energy for write commands per rank (pJ)
system.mem_ctrls1.avgBusLat                       nan                       # Average bus latency per DRAM burst
system.mem_ctrls1.avgGap                          nan                       # Average gap between requests
system.mem_ctrls1.avgMemAccLat                    nan                       # Average memory access latency per DRAM burst
system.mem_ctrls1.avgQLat                         nan                       # Average queueing delay per DRAM burst
system.mem_ctrls1.avgRdBW                        0.00                       # Average DRAM read bandwidth in MiByte/s
system.mem_ctrls1.avgRdBWSys                     0.00                       # Average system read bandwidth in MiByte/s
system.mem_ctrls1.avgRdQLen                      0.00                       # Average read queue length when enqueuing
system.mem_ctrls1.avgWrBW                        0.00                       # Average achieved write bandwidth in MiByte/s
system.mem_ctrls1.avgWrBWSys                     0.00                       # Average system write bandwidth in MiByte/s
system.mem_ctrls1.avgWrQLen                      0.00                       # Average write queue length when enqueuing
system.mem_ctrls1.busUtil                        0.00                       # Data bus utilization in percentage
system.mem_ctrls1.busUtilRead                    0.00                       # Data bus utilization in percentage for reads
system.mem_ctrls1.busUtilWrite                   0.00                       # Data bus utilization in percentage for writes
system.mem_ctrls1.bytesReadDRAM                     0                       # Total number of bytes read from DRAM
system.mem_ctrls1.bytesReadSys                      0                       # Total read bytes from the system interface side
system.mem_ctrls1.bytesReadWrQ                      0                       # Total number of bytes read from write queue
system.mem_ctrls1.bytesWritten                      0                       # Total number of bytes written to DRAM
system.mem_ctrls1.bytesWrittenSys                   0                       # Total written bytes from the system interface side
system.mem_ctrls1.mergedWrBursts                    0                       # Number of DRAM write bursts merged with an existing one
system.mem_ctrls1.neitherReadNorWriteReqs            0                       # Number of requests that are neither read nor write
system.mem_ctrls1.numRdRetry                        0                       # Number of times read queue was full causing retry
system.mem_ctrls1.numReadWriteTurnArounds            0                       # Number of turnarounds from READ to WRITE
system.mem_ctrls1.numStayReadState                  2                       # Number of times bus staying in READ state
system.mem_ctrls1.numStayWriteState                 0                       # Number of times bus staying in WRITE state
system.mem_ctrls1.numWrRetry                        0                       # Number of times write queue was full causing retry
system.mem_ctrls1.numWriteReadTurnArounds            0                       # Number of turnarounds from WRITE to READ
system.mem_ctrls1.pageHitRate                     nan                       # Row buffer hit rate, read and write combined
system.mem_ctrls1.peakBW                     12800.00                       # Theoretical peak bandwidth in MiByte/s
system.mem_ctrls1.perBankRdBursts::0                0                       # Per bank write bursts
system.mem_ctrls1.perBankRdBursts::1                0                       # Per bank write bursts
system.mem_ctrls1.perBankRdBursts::2                0                       # Per bank write bursts
system.mem_ctrls1.perBankRdBursts::3                0                       # Per bank write bursts
system.mem_ctrls1.perBankRdBursts::4                0                       # Per bank write bursts
system.mem_ctrls1.perBankRdBursts::5                0                       # Per bank write bursts
system.mem_ctrls1.perBankRdBursts::6                0                       # Per bank write bursts
system.mem_ctrls1.perBankRdBursts::7                0                       # Per bank write bursts
system.mem_ctrls1.perBankRdBursts::8                0                       # Per bank write bursts
system.mem_ctrls1.perBankRdBursts::9                0                       # Per bank write bursts
system.mem_ctrls1.perBankRdBursts::10               0                       # Per bank write bursts
system.mem_ctrls1.perBankRdBursts::11               0                       # Per bank write bursts
system.mem_ctrls1.perBankRdBursts::12               0                       # Per bank write bursts
system.mem_ctrls1.perBankRdBursts::13               0                       # Per bank write bursts
system.mem_ctrls1.perBankRdBursts::14               0                       # Per bank write bursts
system.mem_ctrls1.perBankRdBursts::15               0                       # Per bank write bursts
system.mem_ctrls1.perBankWrBursts::0                0                       # Per bank write bursts
system.mem_ctrls1.perBankWrBursts::1                0                       # Per bank write bursts
system.mem_ctrls1.perBankWrBursts::2                0                       # Per bank write bursts
system.mem_ctrls1.perBankWrBursts::3                0                       # Per bank write bursts
system.mem_ctrls1.perBankWrBursts::4                0                       # Per bank write bursts
system.mem_ctrls1.perBankWrBursts::5                0                       # Per bank write bursts
system.mem_ctrls1.perBankWrBursts::6                0                       # Per bank write bursts
system.mem_ctrls1.perBankWrBursts::7                0                       # Per bank write bursts
system.mem_ctrls1.perBankWrBursts::8                0                       # Per bank write bursts
system.mem_ctrls1.perBankWrBursts::9                0                       # Per bank write bursts
system.mem_ctrls1.perBankWrBursts::10               0                       # Per bank write bursts
system.mem_ctrls1.perBankWrBursts::11               0                       # Per bank write bursts
system.mem_ctrls1.perBankWrBursts::12               0                       # Per bank write bursts
system.mem_ctrls1.perBankWrBursts::13               0                       # Per bank write bursts
system.mem_ctrls1.perBankWrBursts::14               0                       # Per bank write bursts
system.mem_ctrls1.perBankWrBursts::15               0                       # Per bank write bursts
system.mem_ctrls1.priorityMaxLatency     0.000000000000                       # per QoS priority maximum request to response latency (s)
system.mem_ctrls1.priorityMinLatency     0.000000000000                       # per QoS priority minimum request to response latency (s)
system.mem_ctrls1.pwrStateResidencyTicks::UNDEFINED        22038                       # Cumulative time (in ticks) in various power states
system.mem_ctrls1.rdQLenPdf::0                      0                       # What read queue length does an incoming req see
system.mem_ctrls1.rdQLenPdf::1                      0                       # What read queue length does an incoming req see
system.mem_ctrls1.rdQLenPdf::2                      0                       # What read queue length does an incoming req see
system.mem_ctrls1.rdQLenPdf::3                      0                       # What read queue length does an incoming req see
system.mem_ctrls1.rdQLenPdf::4                      0                       # What read queue length does an incoming req see
system.mem_ctrls1.rdQLenPdf::5                      0                       # What read queue length does an incoming req see
system.mem_ctrls1.rdQLenPdf::6                      0                       # What read queue length does an incoming req see
system.mem_ctrls1.rdQLenPdf::7                      0                       # What read queue length does an incoming req see
system.mem_ctrls1.rdQLenPdf::8                      0                       # What read queue length does an incoming req see
system.mem_ctrls1.rdQLenPdf::9                      0                       # What read queue length does an incoming req see
system.mem_ctrls1.rdQLenPdf::10                     0                       # What read queue length does an incoming req see
system.mem_ctrls1.rdQLenPdf::11                     0                       # What read queue length does an incoming req see
system.mem_ctrls1.rdQLenPdf::12                     0                       # What read queue length does an incoming req see
system.mem_ctrls1.rdQLenPdf::13                     0                       # What read queue length does an incoming req see
system.mem_ctrls1.rdQLenPdf::14                     0                       # What read queue length does an incoming req see
system.mem_ctrls1.rdQLenPdf::15                     0                       # What read queue length does an incoming req see
system.mem_ctrls1.rdQLenPdf::16                     0                       # What read queue length does an incoming req see
system.mem_ctrls1.rdQLenPdf::17                     0                       # What read queue length does an incoming req see
system.mem_ctrls1.rdQLenPdf::18                     0                       # What read queue length does an incoming req see
system.mem_ctrls1.rdQLenPdf::19                     0                       # What read queue length does an incoming req see
system.mem_ctrls1.rdQLenPdf::20                     0                       # What read queue length does an incoming req see
system.mem_ctrls1.rdQLenPdf::21                     0                       # What read queue length does an incoming req see
system.mem_ctrls1.rdQLenPdf::22                     0                       # What read queue length does an incoming req see
system.mem_ctrls1.rdQLenPdf::23                     0                       # What read queue length does an incoming req see
system.mem_ctrls1.rdQLenPdf::24                     0                       # What read queue length does an incoming req see
system.mem_ctrls1.rdQLenPdf::25                     0                       # What read queue length does an incoming req see
system.mem_ctrls1.rdQLenPdf::26                     0                       # What read queue length does an incoming req see
system.mem_ctrls1.rdQLenPdf::27                     0                       # What read queue length does an incoming req see
system.mem_ctrls1.rdQLenPdf::28                     0                       # What read queue length does an incoming req see
system.mem_ctrls1.rdQLenPdf::29                     0                       # What read queue length does an incoming req see
system.mem_ctrls1.rdQLenPdf::30                     0                       # What read queue length does an incoming req see
system.mem_ctrls1.rdQLenPdf::31                     0                       # What read queue length does an incoming req see
system.mem_ctrls1.readBursts                        0                       # Number of DRAM read bursts, including those serviced by the write queue
system.mem_ctrls1.readPktSize::0                    0                       # Read request sizes (log2)
system.mem_ctrls1.readPktSize::1                    0                       # Read request sizes (log2)
system.mem_ctrls1.readPktSize::2                    0                       # Read request sizes (log2)
system.mem_ctrls1.readPktSize::3                    0                       # Read request sizes (log2)
system.mem_ctrls1.readPktSize::4                    0                       # Read request sizes (log2)
system.mem_ctrls1.readPktSize::5                    0                       # Read request sizes (log2)
system.mem_ctrls1.readPktSize::6                    0                       # Read request sizes (log2)
system.mem_ctrls1.readReqs                          0                       # Number of read requests accepted
system.mem_ctrls1.readRowHitRate                  nan                       # Row buffer hit rate for reads
system.mem_ctrls1.readRowHits                       0                       # Number of row buffer hits during reads
system.mem_ctrls1.servicedByWrQ                     0                       # Number of DRAM read bursts serviced by the write queue
system.mem_ctrls1.totBusLat                         0                       # Total ticks spent in databus transfers
system.mem_ctrls1.totGap                            0                       # Total gap between requests
system.mem_ctrls1.totMemAccLat                      0                       # Total ticks spent from burst creation until serviced by the DRAM
system.mem_ctrls1.totQLat                           0                       # Total ticks spent queuing
system.mem_ctrls1.wrQLenPdf::0                      0                       # What write queue length does an incoming req see
system.mem_ctrls1.wrQLenPdf::1                      0                       # What write queue length does an incoming req see
system.mem_ctrls1.wrQLenPdf::2                      0                       # What write queue length does an incoming req see
system.mem_ctrls1.wrQLenPdf::3                      0                       # What write queue length does an incoming req see
system.mem_ctrls1.wrQLenPdf::4                      0                       # What write queue length does an incoming req see
system.mem_ctrls1.wrQLenPdf::5                      0                       # What write queue length does an incoming req see
system.mem_ctrls1.wrQLenPdf::6                      0                       # What write queue length does an incoming req see
system.mem_ctrls1.wrQLenPdf::7                      0                       # What write queue length does an incoming req see
system.mem_ctrls1.wrQLenPdf::8                      0                       # What write queue length does an incoming req see
system.mem_ctrls1.wrQLenPdf::9                      0                       # What write queue length does an incoming req see
system.mem_ctrls1.wrQLenPdf::10                     0                       # What write queue length does an incoming req see
system.mem_ctrls1.wrQLenPdf::11                     0                       # What write queue length does an incoming req see
system.mem_ctrls1.wrQLenPdf::12                     0                       # What write queue length does an incoming req see
system.mem_ctrls1.wrQLenPdf::13                     0                       # What write queue length does an incoming req see
system.mem_ctrls1.wrQLenPdf::14                     0                       # What write queue length does an incoming req see
system.mem_ctrls1.wrQLenPdf::15                     0                       # What write queue length does an incoming req see
system.mem_ctrls1.wrQLenPdf::16                     0                       # What write queue length does an incoming req see
system.mem_ctrls1.wrQLenPdf::17                     0                       # What write queue length does an incoming req see
system.mem_ctrls1.wrQLenPdf::18                     0                       # What write queue length does an incoming req see
system.mem_ctrls1.wrQLenPdf::19                     0                       # What write queue length does an incoming req see
system.mem_ctrls1.wrQLenPdf::20                     0                       # What write queue length does an incoming req see
system.mem_ctrls1.wrQLenPdf::21                     0                       # What write queue length does an incoming req see
system.mem_ctrls1.wrQLenPdf::22                     0                       # What write queue length does an incoming req see
system.mem_ctrls1.wrQLenPdf::23                     0                       # What write queue length does an incoming req see
system.mem_ctrls1.wrQLenPdf::24                     0                       # What write queue length does an incoming req see
system.mem_ctrls1.wrQLenPdf::25                     0                       # What write queue length does an incoming req see
system.mem_ctrls1.wrQLenPdf::26                     0                       # What write queue length does an incoming req see
system.mem_ctrls1.wrQLenPdf::27                     0                       # What write queue length does an incoming req see
system.mem_ctrls1.wrQLenPdf::28                     0                       # What write queue length does an incoming req see
system.mem_ctrls1.wrQLenPdf::29                     0                       # What write queue length does an incoming req see
system.mem_ctrls1.wrQLenPdf::30                     0                       # What write queue length does an incoming req see
system.mem_ctrls1.wrQLenPdf::31                     0                       # What write queue length does an incoming req see
system.mem_ctrls1.wrQLenPdf::32                     0                       # What write queue length does an incoming req see
system.mem_ctrls1.wrQLenPdf::33                     0                       # What write queue length does an incoming req see
system.mem_ctrls1.wrQLenPdf::34                     0                       # What write queue length does an incoming req see
system.mem_ctrls1.wrQLenPdf::35                     0                       # What write queue length does an incoming req see
system.mem_ctrls1.wrQLenPdf::36                     0                       # What write queue length does an incoming req see
system.mem_ctrls1.wrQLenPdf::37                     0                       # What write queue length does an incoming req see
system.mem_ctrls1.wrQLenPdf::38                     0                       # What write queue length does an incoming req see
system.mem_ctrls1.wrQLenPdf::39                     0                       # What write queue length does an incoming req see
system.mem_ctrls1.wrQLenPdf::40                     0                       # What write queue length does an incoming req see
system.mem_ctrls1.wrQLenPdf::41                     0                       # What write queue length does an incoming req see
system.mem_ctrls1.wrQLenPdf::42                     0                       # What write queue length does an incoming req see
system.mem_ctrls1.wrQLenPdf::43                     0                       # What write queue length does an incoming req see
system.mem_ctrls1.wrQLenPdf::44                     0                       # What write queue length does an incoming req see
system.mem_ctrls1.wrQLenPdf::45                     0                       # What write queue length does an incoming req see
system.mem_ctrls1.wrQLenPdf::46                     0                       # What write queue length does an incoming req see
system.mem_ctrls1.wrQLenPdf::47                     0                       # What write queue length does an incoming req see
system.mem_ctrls1.wrQLenPdf::48                     0                       # What write queue length does an incoming req see
system.mem_ctrls1.wrQLenPdf::49                     0                       # What write queue length does an incoming req see
system.mem_ctrls1.wrQLenPdf::50                     0                       # What write queue length does an incoming req see
system.mem_ctrls1.wrQLenPdf::51                     0                       # What write queue length does an incoming req see
system.mem_ctrls1.wrQLenPdf::52                     0                       # What write queue length does an incoming req see
system.mem_ctrls1.wrQLenPdf::53                     0                       # What write queue length does an incoming req see
system.mem_ctrls1.wrQLenPdf::54                     0                       # What write queue length does an incoming req see
system.mem_ctrls1.wrQLenPdf::55                     0                       # What write queue length does an incoming req see
system.mem_ctrls1.wrQLenPdf::56                     0                       # What write queue length does an incoming req see
system.mem_ctrls1.wrQLenPdf::57                     0                       # What write queue length does an incoming req see
system.mem_ctrls1.wrQLenPdf::58                     0                       # What write queue length does an incoming req see
system.mem_ctrls1.wrQLenPdf::59                     0                       # What write queue length does an incoming req see
system.mem_ctrls1.wrQLenPdf::60                     0                       # What write queue length does an incoming req see
system.mem_ctrls1.wrQLenPdf::61                     0                       # What write queue length does an incoming req see
system.mem_ctrls1.wrQLenPdf::62                     0                       # What write queue length does an incoming req see
system.mem_ctrls1.wrQLenPdf::63                     0                       # What write queue length does an incoming req see
system.mem_ctrls1.writeBursts                       0                       # Number of DRAM write bursts, including those merged in the write queue
system.mem_ctrls1.writePktSize::0                   0                       # Write request sizes (log2)
system.mem_ctrls1.writePktSize::1                   0                       # Write request sizes (log2)
system.mem_ctrls1.writePktSize::2                   0                       # Write request sizes (log2)
system.mem_ctrls1.writePktSize::3                   0                       # Write request sizes (log2)
system.mem_ctrls1.writePktSize::4                   0                       # Write request sizes (log2)
system.mem_ctrls1.writePktSize::5                   0                       # Write request sizes (log2)
system.mem_ctrls1.writePktSize::6                   0                       # Write request sizes (log2)
system.mem_ctrls1.writeReqs                         0                       # Number of write requests accepted
system.mem_ctrls1.writeRowHitRate                 nan                       # Row buffer hit rate for writes
system.mem_ctrls1.writeRowHits                      0                       # Number of row buffer hits during writes
system.mem_ctrls1_0.actBackEnergy              112176                       # Energy for active background per rank (pJ)
system.mem_ctrls1_0.actEnergy                       0                       # Energy for activate commands per rank (pJ)
system.mem_ctrls1_0.actPowerDownEnergy              0                       # Energy for active power-down per rank (pJ)
system.mem_ctrls1_0.averagePower           395.541519                       # Core power per rank (mW)
system.mem_ctrls1_0.memoryStateTime::IDLE         7792                       # Time in different power states
system.mem_ctrls1_0.memoryStateTime::REF          260                       # Time in different power states
system.mem_ctrls1_0.memoryStateTime::SREF         6460                       # Time in different power states
system.mem_ctrls1_0.memoryStateTime::PRE_PDN         7526                       # Time in different power states
system.mem_ctrls1_0.memoryStateTime::ACT            0                       # Time in different power states
system.mem_ctrls1_0.memoryStateTime::ACT_PDN            0                       # Time in different power states
system.mem_ctrls1_0.preBackEnergy             2997504                       # Energy for precharge background per rank (pJ)
system.mem_ctrls1_0.preEnergy                       0                       # Energy for precharge commands per rank (pJ)
system.mem_ctrls1_0.prePowerDownEnergy        2889984                       # Energy for precharge power-down per rank (pJ)
system.mem_ctrls1_0.readEnergy                      0                       # Energy for read commands per rank (pJ)
system.mem_ctrls1_0.refreshEnergy        614640.000000                       # Energy for refresh commands per rank (pJ)
system.mem_ctrls1_0.selfRefreshEnergy         2102640                       # Energy for self refresh per rank (pJ)
system.mem_ctrls1_0.totalEnergy               8716944                       # Total energy per rank (pJ)
system.mem_ctrls1_0.totalIdleTime                7526                       # Total Idle time Per DRAM Rank
system.mem_ctrls1_0.writeEnergy                     0                       # Energy for write commands per rank (pJ)
system.mem_ctrls1_1.actBackEnergy              112176                       # Energy for active background per rank (pJ)
system.mem_ctrls1_1.actEnergy                       0                       # Energy for activate commands per rank (pJ)
system.mem_ctrls1_1.actPowerDownEnergy              0                       # Energy for active power-down per rank (pJ)
system.mem_ctrls1_1.averagePower           395.541519                       # Core power per rank (mW)
system.mem_ctrls1_1.memoryStateTime::IDLE         7792                       # Time in different power states
system.mem_ctrls1_1.memoryStateTime::REF          260                       # Time in different power states
system.mem_ctrls1_1.memoryStateTime::SREF         6460                       # Time in different power states
system.mem_ctrls1_1.memoryStateTime::PRE_PDN         7526                       # Time in different power states
system.mem_ctrls1_1.memoryStateTime::ACT            0                       # Time in different power states
system.mem_ctrls1_1.memoryStateTime::ACT_PDN            0                       # Time in different power states
system.mem_ctrls1_1.preBackEnergy             2997504                       # Energy for precharge background per rank (pJ)
system.mem_ctrls1_1.preEnergy                       0                       # Energy for precharge commands per rank (pJ)
system.mem_ctrls1_1.prePowerDownEnergy        2889984                       # Energy for precharge power-down per rank (pJ)
system.mem_ctrls1_1.readEnergy                      0                       # Energy for read commands per rank (pJ)
system.mem_ctrls1_1.refreshEnergy        614640.000000                       # Energy for refresh commands per rank (pJ)
system.mem_ctrls1_1.selfRefreshEnergy         2102640                       # Energy for self refresh per rank (pJ)
system.mem_ctrls1_1.totalEnergy               8716944                       # Total energy per rank (pJ)
system.mem_ctrls1_1.totalIdleTime                7526                       # Total Idle time Per DRAM Rank
system.mem_ctrls1_1.writeEnergy                     0                       # Energy for write commands per rank (pJ)
system.mem_ctrls2.avgBusLat                       nan                       # Average bus latency per DRAM burst
system.mem_ctrls2.avgGap                          nan                       # Average gap between requests
system.mem_ctrls2.avgMemAccLat                    nan                       # Average memory access latency per DRAM burst
system.mem_ctrls2.avgQLat                         nan                       # Average queueing delay per DRAM burst
system.mem_ctrls2.avgRdBW                        0.00                       # Average DRAM read bandwidth in MiByte/s
system.mem_ctrls2.avgRdBWSys                     0.00                       # Average system read bandwidth in MiByte/s
system.mem_ctrls2.avgRdQLen                      0.00                       # Average read queue length when enqueuing
system.mem_ctrls2.avgWrBW                        0.00                       # Average achieved write bandwidth in MiByte/s
system.mem_ctrls2.avgWrBWSys                     0.00                       # Average system write bandwidth in MiByte/s
system.mem_ctrls2.avgWrQLen                      0.00                       # Average write queue length when enqueuing
system.mem_ctrls2.busUtil                        0.00                       # Data bus utilization in percentage
system.mem_ctrls2.busUtilRead                    0.00                       # Data bus utilization in percentage for reads
system.mem_ctrls2.busUtilWrite                   0.00                       # Data bus utilization in percentage for writes
system.mem_ctrls2.bytesReadDRAM                     0                       # Total number of bytes read from DRAM
system.mem_ctrls2.bytesReadSys                      0                       # Total read bytes from the system interface side
system.mem_ctrls2.bytesReadWrQ                      0                       # Total number of bytes read from write queue
system.mem_ctrls2.bytesWritten                      0                       # Total number of bytes written to DRAM
system.mem_ctrls2.bytesWrittenSys                   0                       # Total written bytes from the system interface side
system.mem_ctrls2.mergedWrBursts                    0                       # Number of DRAM write bursts merged with an existing one
system.mem_ctrls2.neitherReadNorWriteReqs            0                       # Number of requests that are neither read nor write
system.mem_ctrls2.numRdRetry                        0                       # Number of times read queue was full causing retry
system.mem_ctrls2.numReadWriteTurnArounds            0                       # Number of turnarounds from READ to WRITE
system.mem_ctrls2.numStayReadState                  2                       # Number of times bus staying in READ state
system.mem_ctrls2.numStayWriteState                 0                       # Number of times bus staying in WRITE state
system.mem_ctrls2.numWrRetry                        0                       # Number of times write queue was full causing retry
system.mem_ctrls2.numWriteReadTurnArounds            0                       # Number of turnarounds from WRITE to READ
system.mem_ctrls2.pageHitRate                     nan                       # Row buffer hit rate, read and write combined
system.mem_ctrls2.peakBW                     12800.00                       # Theoretical peak bandwidth in MiByte/s
system.mem_ctrls2.perBankRdBursts::0                0                       # Per bank write bursts
system.mem_ctrls2.perBankRdBursts::1                0                       # Per bank write bursts
system.mem_ctrls2.perBankRdBursts::2                0                       # Per bank write bursts
system.mem_ctrls2.perBankRdBursts::3                0                       # Per bank write bursts
system.mem_ctrls2.perBankRdBursts::4                0                       # Per bank write bursts
system.mem_ctrls2.perBankRdBursts::5                0                       # Per bank write bursts
system.mem_ctrls2.perBankRdBursts::6                0                       # Per bank write bursts
system.mem_ctrls2.perBankRdBursts::7                0                       # Per bank write bursts
system.mem_ctrls2.perBankRdBursts::8                0                       # Per bank write bursts
system.mem_ctrls2.perBankRdBursts::9                0                       # Per bank write bursts
system.mem_ctrls2.perBankRdBursts::10               0                       # Per bank write bursts
system.mem_ctrls2.perBankRdBursts::11               0                       # Per bank write bursts
system.mem_ctrls2.perBankRdBursts::12               0                       # Per bank write bursts
system.mem_ctrls2.perBankRdBursts::13               0                       # Per bank write bursts
system.mem_ctrls2.perBankRdBursts::14               0                       # Per bank write bursts
system.mem_ctrls2.perBankRdBursts::15               0                       # Per bank write bursts
system.mem_ctrls2.perBankWrBursts::0                0                       # Per bank write bursts
system.mem_ctrls2.perBankWrBursts::1                0                       # Per bank write bursts
system.mem_ctrls2.perBankWrBursts::2                0                       # Per bank write bursts
system.mem_ctrls2.perBankWrBursts::3                0                       # Per bank write bursts
system.mem_ctrls2.perBankWrBursts::4                0                       # Per bank write bursts
system.mem_ctrls2.perBankWrBursts::5                0                       # Per bank write bursts
system.mem_ctrls2.perBankWrBursts::6                0                       # Per bank write bursts
system.mem_ctrls2.perBankWrBursts::7                0                       # Per bank write bursts
system.mem_ctrls2.perBankWrBursts::8                0                       # Per bank write bursts
system.mem_ctrls2.perBankWrBursts::9                0                       # Per bank write bursts
system.mem_ctrls2.perBankWrBursts::10               0                       # Per bank write bursts
system.mem_ctrls2.perBankWrBursts::11               0                       # Per bank write bursts
system.mem_ctrls2.perBankWrBursts::12               0                       # Per bank write bursts
system.mem_ctrls2.perBankWrBursts::13               0                       # Per bank write bursts
system.mem_ctrls2.perBankWrBursts::14               0                       # Per bank write bursts
system.mem_ctrls2.perBankWrBursts::15               0                       # Per bank write bursts
system.mem_ctrls2.priorityMaxLatency     0.000000000000                       # per QoS priority maximum request to response latency (s)
system.mem_ctrls2.priorityMinLatency     0.000000000000                       # per QoS priority minimum request to response latency (s)
system.mem_ctrls2.pwrStateResidencyTicks::UNDEFINED        22038                       # Cumulative time (in ticks) in various power states
system.mem_ctrls2.rdQLenPdf::0                      0                       # What read queue length does an incoming req see
system.mem_ctrls2.rdQLenPdf::1                      0                       # What read queue length does an incoming req see
system.mem_ctrls2.rdQLenPdf::2                      0                       # What read queue length does an incoming req see
system.mem_ctrls2.rdQLenPdf::3                      0                       # What read queue length does an incoming req see
system.mem_ctrls2.rdQLenPdf::4                      0                       # What read queue length does an incoming req see
system.mem_ctrls2.rdQLenPdf::5                      0                       # What read queue length does an incoming req see
system.mem_ctrls2.rdQLenPdf::6                      0                       # What read queue length does an incoming req see
system.mem_ctrls2.rdQLenPdf::7                      0                       # What read queue length does an incoming req see
system.mem_ctrls2.rdQLenPdf::8                      0                       # What read queue length does an incoming req see
system.mem_ctrls2.rdQLenPdf::9                      0                       # What read queue length does an incoming req see
system.mem_ctrls2.rdQLenPdf::10                     0                       # What read queue length does an incoming req see
system.mem_ctrls2.rdQLenPdf::11                     0                       # What read queue length does an incoming req see
system.mem_ctrls2.rdQLenPdf::12                     0                       # What read queue length does an incoming req see
system.mem_ctrls2.rdQLenPdf::13                     0                       # What read queue length does an incoming req see
system.mem_ctrls2.rdQLenPdf::14                     0                       # What read queue length does an incoming req see
system.mem_ctrls2.rdQLenPdf::15                     0                       # What read queue length does an incoming req see
system.mem_ctrls2.rdQLenPdf::16                     0                       # What read queue length does an incoming req see
system.mem_ctrls2.rdQLenPdf::17                     0                       # What read queue length does an incoming req see
system.mem_ctrls2.rdQLenPdf::18                     0                       # What read queue length does an incoming req see
system.mem_ctrls2.rdQLenPdf::19                     0                       # What read queue length does an incoming req see
system.mem_ctrls2.rdQLenPdf::20                     0                       # What read queue length does an incoming req see
system.mem_ctrls2.rdQLenPdf::21                     0                       # What read queue length does an incoming req see
system.mem_ctrls2.rdQLenPdf::22                     0                       # What read queue length does an incoming req see
system.mem_ctrls2.rdQLenPdf::23                     0                       # What read queue length does an incoming req see
system.mem_ctrls2.rdQLenPdf::24                     0                       # What read queue length does an incoming req see
system.mem_ctrls2.rdQLenPdf::25                     0                       # What read queue length does an incoming req see
system.mem_ctrls2.rdQLenPdf::26                     0                       # What read queue length does an incoming req see
system.mem_ctrls2.rdQLenPdf::27                     0                       # What read queue length does an incoming req see
system.mem_ctrls2.rdQLenPdf::28                     0                       # What read queue length does an incoming req see
system.mem_ctrls2.rdQLenPdf::29                     0                       # What read queue length does an incoming req see
system.mem_ctrls2.rdQLenPdf::30                     0                       # What read queue length does an incoming req see
system.mem_ctrls2.rdQLenPdf::31                     0                       # What read queue length does an incoming req see
system.mem_ctrls2.readBursts                        0                       # Number of DRAM read bursts, including those serviced by the write queue
system.mem_ctrls2.readPktSize::0                    0                       # Read request sizes (log2)
system.mem_ctrls2.readPktSize::1                    0                       # Read request sizes (log2)
system.mem_ctrls2.readPktSize::2                    0                       # Read request sizes (log2)
system.mem_ctrls2.readPktSize::3                    0                       # Read request sizes (log2)
system.mem_ctrls2.readPktSize::4                    0                       # Read request sizes (log2)
system.mem_ctrls2.readPktSize::5                    0                       # Read request sizes (log2)
system.mem_ctrls2.readPktSize::6                    0                       # Read request sizes (log2)
system.mem_ctrls2.readReqs                          0                       # Number of read requests accepted
system.mem_ctrls2.readRowHitRate                  nan                       # Row buffer hit rate for reads
system.mem_ctrls2.readRowHits                       0                       # Number of row buffer hits during reads
system.mem_ctrls2.servicedByWrQ                     0                       # Number of DRAM read bursts serviced by the write queue
system.mem_ctrls2.totBusLat                         0                       # Total ticks spent in databus transfers
system.mem_ctrls2.totGap                            0                       # Total gap between requests
system.mem_ctrls2.totMemAccLat                      0                       # Total ticks spent from burst creation until serviced by the DRAM
system.mem_ctrls2.totQLat                           0                       # Total ticks spent queuing
system.mem_ctrls2.wrQLenPdf::0                      0                       # What write queue length does an incoming req see
system.mem_ctrls2.wrQLenPdf::1                      0                       # What write queue length does an incoming req see
system.mem_ctrls2.wrQLenPdf::2                      0                       # What write queue length does an incoming req see
system.mem_ctrls2.wrQLenPdf::3                      0                       # What write queue length does an incoming req see
system.mem_ctrls2.wrQLenPdf::4                      0                       # What write queue length does an incoming req see
system.mem_ctrls2.wrQLenPdf::5                      0                       # What write queue length does an incoming req see
system.mem_ctrls2.wrQLenPdf::6                      0                       # What write queue length does an incoming req see
system.mem_ctrls2.wrQLenPdf::7                      0                       # What write queue length does an incoming req see
system.mem_ctrls2.wrQLenPdf::8                      0                       # What write queue length does an incoming req see
system.mem_ctrls2.wrQLenPdf::9                      0                       # What write queue length does an incoming req see
system.mem_ctrls2.wrQLenPdf::10                     0                       # What write queue length does an incoming req see
system.mem_ctrls2.wrQLenPdf::11                     0                       # What write queue length does an incoming req see
system.mem_ctrls2.wrQLenPdf::12                     0                       # What write queue length does an incoming req see
system.mem_ctrls2.wrQLenPdf::13                     0                       # What write queue length does an incoming req see
system.mem_ctrls2.wrQLenPdf::14                     0                       # What write queue length does an incoming req see
system.mem_ctrls2.wrQLenPdf::15                     0                       # What write queue length does an incoming req see
system.mem_ctrls2.wrQLenPdf::16                     0                       # What write queue length does an incoming req see
system.mem_ctrls2.wrQLenPdf::17                     0                       # What write queue length does an incoming req see
system.mem_ctrls2.wrQLenPdf::18                     0                       # What write queue length does an incoming req see
system.mem_ctrls2.wrQLenPdf::19                     0                       # What write queue length does an incoming req see
system.mem_ctrls2.wrQLenPdf::20                     0                       # What write queue length does an incoming req see
system.mem_ctrls2.wrQLenPdf::21                     0                       # What write queue length does an incoming req see
system.mem_ctrls2.wrQLenPdf::22                     0                       # What write queue length does an incoming req see
system.mem_ctrls2.wrQLenPdf::23                     0                       # What write queue length does an incoming req see
system.mem_ctrls2.wrQLenPdf::24                     0                       # What write queue length does an incoming req see
system.mem_ctrls2.wrQLenPdf::25                     0                       # What write queue length does an incoming req see
system.mem_ctrls2.wrQLenPdf::26                     0                       # What write queue length does an incoming req see
system.mem_ctrls2.wrQLenPdf::27                     0                       # What write queue length does an incoming req see
system.mem_ctrls2.wrQLenPdf::28                     0                       # What write queue length does an incoming req see
system.mem_ctrls2.wrQLenPdf::29                     0                       # What write queue length does an incoming req see
system.mem_ctrls2.wrQLenPdf::30                     0                       # What write queue length does an incoming req see
system.mem_ctrls2.wrQLenPdf::31                     0                       # What write queue length does an incoming req see
system.mem_ctrls2.wrQLenPdf::32                     0                       # What write queue length does an incoming req see
system.mem_ctrls2.wrQLenPdf::33                     0                       # What write queue length does an incoming req see
system.mem_ctrls2.wrQLenPdf::34                     0                       # What write queue length does an incoming req see
system.mem_ctrls2.wrQLenPdf::35                     0                       # What write queue length does an incoming req see
system.mem_ctrls2.wrQLenPdf::36                     0                       # What write queue length does an incoming req see
system.mem_ctrls2.wrQLenPdf::37                     0                       # What write queue length does an incoming req see
system.mem_ctrls2.wrQLenPdf::38                     0                       # What write queue length does an incoming req see
system.mem_ctrls2.wrQLenPdf::39                     0                       # What write queue length does an incoming req see
system.mem_ctrls2.wrQLenPdf::40                     0                       # What write queue length does an incoming req see
system.mem_ctrls2.wrQLenPdf::41                     0                       # What write queue length does an incoming req see
system.mem_ctrls2.wrQLenPdf::42                     0                       # What write queue length does an incoming req see
system.mem_ctrls2.wrQLenPdf::43                     0                       # What write queue length does an incoming req see
system.mem_ctrls2.wrQLenPdf::44                     0                       # What write queue length does an incoming req see
system.mem_ctrls2.wrQLenPdf::45                     0                       # What write queue length does an incoming req see
system.mem_ctrls2.wrQLenPdf::46                     0                       # What write queue length does an incoming req see
system.mem_ctrls2.wrQLenPdf::47                     0                       # What write queue length does an incoming req see
system.mem_ctrls2.wrQLenPdf::48                     0                       # What write queue length does an incoming req see
system.mem_ctrls2.wrQLenPdf::49                     0                       # What write queue length does an incoming req see
system.mem_ctrls2.wrQLenPdf::50                     0                       # What write queue length does an incoming req see
system.mem_ctrls2.wrQLenPdf::51                     0                       # What write queue length does an incoming req see
system.mem_ctrls2.wrQLenPdf::52                     0                       # What write queue length does an incoming req see
system.mem_ctrls2.wrQLenPdf::53                     0                       # What write queue length does an incoming req see
system.mem_ctrls2.wrQLenPdf::54                     0                       # What write queue length does an incoming req see
system.mem_ctrls2.wrQLenPdf::55                     0                       # What write queue length does an incoming req see
system.mem_ctrls2.wrQLenPdf::56                     0                       # What write queue length does an incoming req see
system.mem_ctrls2.wrQLenPdf::57                     0                       # What write queue length does an incoming req see
system.mem_ctrls2.wrQLenPdf::58                     0                       # What write queue length does an incoming req see
system.mem_ctrls2.wrQLenPdf::59                     0                       # What write queue length does an incoming req see
system.mem_ctrls2.wrQLenPdf::60                     0                       # What write queue length does an incoming req see
system.mem_ctrls2.wrQLenPdf::61                     0                       # What write queue length does an incoming req see
system.mem_ctrls2.wrQLenPdf::62                     0                       # What write queue length does an incoming req see
system.mem_ctrls2.wrQLenPdf::63                     0                       # What write queue length does an incoming req see
system.mem_ctrls2.writeBursts                       0                       # Number of DRAM write bursts, including those merged in the write queue
system.mem_ctrls2.writePktSize::0                   0                       # Write request sizes (log2)
system.mem_ctrls2.writePktSize::1                   0                       # Write request sizes (log2)
system.mem_ctrls2.writePktSize::2                   0                       # Write request sizes (log2)
system.mem_ctrls2.writePktSize::3                   0                       # Write request sizes (log2)
system.mem_ctrls2.writePktSize::4                   0                       # Write request sizes (log2)
system.mem_ctrls2.writePktSize::5                   0                       # Write request sizes (log2)
system.mem_ctrls2.writePktSize::6                   0                       # Write request sizes (log2)
system.mem_ctrls2.writeReqs                         0                       # Number of write requests accepted
system.mem_ctrls2.writeRowHitRate                 nan                       # Row buffer hit rate for writes
system.mem_ctrls2.writeRowHits                      0                       # Number of row buffer hits during writes
system.mem_ctrls2_0.actBackEnergy              112176                       # Energy for active background per rank (pJ)
system.mem_ctrls2_0.actEnergy                       0                       # Energy for activate commands per rank (pJ)
system.mem_ctrls2_0.actPowerDownEnergy              0                       # Energy for active power-down per rank (pJ)
system.mem_ctrls2_0.averagePower           395.541519                       # Core power per rank (mW)
system.mem_ctrls2_0.memoryStateTime::IDLE         7792                       # Time in different power states
system.mem_ctrls2_0.memoryStateTime::REF          260                       # Time in different power states
system.mem_ctrls2_0.memoryStateTime::SREF         6460                       # Time in different power states
system.mem_ctrls2_0.memoryStateTime::PRE_PDN         7526                       # Time in different power states
system.mem_ctrls2_0.memoryStateTime::ACT            0                       # Time in different power states
system.mem_ctrls2_0.memoryStateTime::ACT_PDN            0                       # Time in different power states
system.mem_ctrls2_0.preBackEnergy             2997504                       # Energy for precharge background per rank (pJ)
system.mem_ctrls2_0.preEnergy                       0                       # Energy for precharge commands per rank (pJ)
system.mem_ctrls2_0.prePowerDownEnergy        2889984                       # Energy for precharge power-down per rank (pJ)
system.mem_ctrls2_0.readEnergy                      0                       # Energy for read commands per rank (pJ)
system.mem_ctrls2_0.refreshEnergy        614640.000000                       # Energy for refresh commands per rank (pJ)
system.mem_ctrls2_0.selfRefreshEnergy         2102640                       # Energy for self refresh per rank (pJ)
system.mem_ctrls2_0.totalEnergy               8716944                       # Total energy per rank (pJ)
system.mem_ctrls2_0.totalIdleTime                7526                       # Total Idle time Per DRAM Rank
system.mem_ctrls2_0.writeEnergy                     0                       # Energy for write commands per rank (pJ)
system.mem_ctrls2_1.actBackEnergy              112176                       # Energy for active background per rank (pJ)
system.mem_ctrls2_1.actEnergy                       0                       # Energy for activate commands per rank (pJ)
system.mem_ctrls2_1.actPowerDownEnergy              0                       # Energy for active power-down per rank (pJ)
[...]
system.ruby.network.netifs080.pwrStateResidencyTicks::UNDEFINED        22038                       # Cumulative time (in ticks) in various power states
system.ruby.network.netifs081.pwrStateResidencyTicks::UNDEFINED        22038                       # Cumulative time (in ticks) in various power states
system.ruby.network.netifs082.pwrStateResidencyTicks::UNDEFINED        22038                       # Cumulative time (in ticks) in various power states
system.ruby.network.netifs083.pwrStateResidencyTicks::UNDEFINED        22038                       # Cumulative time (in ticks) in various power states
system.ruby.network.netifs084.pwrStateResidencyTicks::UNDEFINED        22038                       # Cumulative time (in ticks) in various power states
system.ruby.network.netifs085.pwrStateResidencyTicks::UNDEFINED        22038                       # Cumulative time (in ticks) in various power states
system.ruby.network.netifs086.pwrStateResidencyTicks::UNDEFINED        22038                       # Cumulative time (in ticks) in various power states
system.ruby.network.netifs087.pwrStateResidencyTicks::UNDEFINED        22038                       # Cumulative time (in ticks) in various power states
system.ruby.network.netifs088.pwrStateResidencyTicks::UNDEFINED        22038                       # Cumulative time (in ticks) in various power states
system.ruby.network.netifs089.pwrStateResidencyTicks::UNDEFINED        22038                       # Cumulative time (in ticks) in various power states
system.ruby.network.netifs090.pwrStateResidencyTicks::UNDEFINED        22038                       # Cumulative time (in ticks) in various power states
system.ruby.network.netifs091.pwrStateResidencyTicks::UNDEFINED        22038                       # Cumulative time (in ticks) in various power states
system.ruby.network.netifs092.pwrStateResidencyTicks::UNDEFINED        22038                       # Cumulative time (in ticks) in various power states
system.ruby.network.netifs093.pwrStateResidencyTicks::UNDEFINED        22038                       # Cumulative time (in ticks) in various power states
system.ruby.network.netifs094.pwrStateResidencyTicks::UNDEFINED        22038                       # Cumulative time (in ticks) in various power states
system.ruby.network.netifs095.pwrStateResidencyTicks::UNDEFINED        22038                       # Cumulative time (in ticks) in various power states
system.ruby.network.netifs096.pwrStateResidencyTicks::UNDEFINED        22038                       # Cumulative time (in ticks) in various power states
system.ruby.network.netifs097.pwrStateResidencyTicks::UNDEFINED        22038                       # Cumulative time (in ticks) in various power states
system.ruby.network.netifs098.pwrStateResidencyTicks::UNDEFINED        22038                       # Cumulative time (in ticks) in various power states
system.ruby.network.netifs099.pwrStateResidencyTicks::UNDEFINED        22038                       # Cumulative time (in ticks) in various power states
system.ruby.network.netifs100.pwrStateResidencyTicks::UNDEFINED        22038                       # Cumulative time (in ticks) in various power states
system.ruby.network.netifs101.pwrStateResidencyTicks::UNDEFINED        22038                       # Cumulative time (in ticks) in various power states
system.ruby.network.netifs102.pwrStateResidencyTicks::UNDEFINED        22038                       # Cumulative time (in ticks) in various power states
system.ruby.network.netifs103.pwrStateResidencyTicks::UNDEFINED        22038                       # Cumulative time (in ticks) in various power states
system.ruby.network.netifs104.pwrStateResidencyTicks::UNDEFINED        22038                       # Cumulative time (in ticks) in various power states
system.ruby.network.netifs105.pwrStateResidencyTicks::UNDEFINED        22038                       # Cumulative time (in ticks) in various power states
system.ruby.network.netifs106.pwrStateResidencyTicks::UNDEFINED        22038                       # Cumulative time (in ticks) in various power states
system.ruby.network.netifs107.pwrStateResidencyTicks::UNDEFINED        22038                       # Cumulative time (in ticks) in various power states
system.ruby.network.netifs108.pwrStateResidencyTicks::UNDEFINED        22038                       # Cumulative time (in ticks) in various power states
system.ruby.network.netifs109.pwrStateResidencyTicks::UNDEFINED        22038                       # Cumulative time (in ticks) in various power states
system.ruby.network.netifs110.pwrStateResidencyTicks::UNDEFINED        22038                       # Cumulative time (in ticks) in various power states
system.ruby.network.netifs111.pwrStateResidencyTicks::UNDEFINED        22038                       # Cumulative time (in ticks) in various power states
system.ruby.network.netifs112.pwrStateResidencyTicks::UNDEFINED        22038                       # Cumulative time (in ticks) in various power states
system.ruby.network.netifs113.pwrStateResidencyTicks::UNDEFINED        22038                       # Cumulative time (in ticks) in various power states
system.ruby.network.netifs114.pwrStateResidencyTicks::UNDEFINED        22038                       # Cumulative time (in ticks) in various power states
system.ruby.network.netifs115.pwrStateResidencyTicks::UNDEFINED        22038                       # Cumulative time (in ticks) in various power states
system.ruby.network.netifs116.pwrStateResidencyTicks::UNDEFINED        22038                       # Cumulative time (in ticks) in various power states
system.ruby.network.netifs117.pwrStateResidencyTicks::UNDEFINED        22038                       # Cumulative time (in ticks) in various power states
system.ruby.network.netifs118.pwrStateResidencyTicks::UNDEFINED        22038                       # Cumulative time (in ticks) in various power states
system.ruby.network.netifs119.pwrStateResidencyTicks::UNDEFINED        22038                       # Cumulative time (in ticks) in various power states
system.ruby.network.netifs120.pwrStateResidencyTicks::UNDEFINED        22038                       # Cumulative time (in ticks) in various power states
system.ruby.network.netifs121.pwrStateResidencyTicks::UNDEFINED        22038                       # Cumulative time (in ticks) in various power states
system.ruby.network.netifs122.pwrStateResidencyTicks::UNDEFINED        22038                       # Cumulative time (in ticks) in various power states
system.ruby.network.netifs123.pwrStateResidencyTicks::UNDEFINED        22038                       # Cumulative time (in ticks) in various power states
system.ruby.network.netifs124.pwrStateResidencyTicks::UNDEFINED        22038                       # Cumulative time (in ticks) in various power states
system.ruby.network.netifs125.pwrStateResidencyTicks::UNDEFINED        22038                       # Cumulative time (in ticks) in various power states
system.ruby.network.netifs126.pwrStateResidencyTicks::UNDEFINED        22038                       # Cumulative time (in ticks) in various power states
system.ruby.network.netifs127.pwrStateResidencyTicks::UNDEFINED        22038                       # Cumulative time (in ticks) in various power states
system.ruby.network.netifs128.pwrStateResidencyTicks::UNDEFINED        22038                       # Cumulative time (in ticks) in various power states
system.ruby.network.netifs129.pwrStateResidencyTicks::UNDEFINED        22038                       # Cumulative time (in ticks) in various power states
system.ruby.network.netifs130.pwrStateResidencyTicks::UNDEFINED        22038                       # Cumulative time (in ticks) in various power states
system.ruby.network.netifs131.pwrStateResidencyTicks::UNDEFINED        22038                       # Cumulative time (in ticks) in various power states
system.ruby.network.netifs132.pwrStateResidencyTicks::UNDEFINED        22038                       # Cumulative time (in ticks) in various power states
system.ruby.network.netifs133.pwrStateResidencyTicks::UNDEFINED        22038                       # Cumulative time (in ticks) in various power states
system.ruby.network.netifs134.pwrStateResidencyTicks::UNDEFINED        22038                       # Cumulative time (in ticks) in various power states
system.ruby.network.netifs135.pwrStateResidencyTicks::UNDEFINED        22038                       # Cumulative time (in ticks) in various power states
system.ruby.network.netifs136.pwrStateResidencyTicks::UNDEFINED        22038                       # Cumulative time (in ticks) in various power states
system.ruby.network.netifs137.pwrStateResidencyTicks::UNDEFINED        22038                       # Cumulative time (in ticks) in various power states
system.ruby.network.netifs138.pwrStateResidencyTicks::UNDEFINED        22038                       # Cumulative time (in ticks) in various power states
system.ruby.network.netifs139.pwrStateResidencyTicks::UNDEFINED        22038                       # Cumulative time (in ticks) in various power states
system.ruby.network.netifs140.pwrStateResidencyTicks::UNDEFINED        22038                       # Cumulative time (in ticks) in various power states
system.ruby.network.netifs141.pwrStateResidencyTicks::UNDEFINED        22038                       # Cumulative time (in ticks) in various power states
system.ruby.network.netifs142.pwrStateResidencyTicks::UNDEFINED        22038                       # Cumulative time (in ticks) in various power states
system.ruby.network.netifs143.pwrStateResidencyTicks::UNDEFINED        22038                       # Cumulative time (in ticks) in various power states
system.ruby.network.netifs144.pwrStateResidencyTicks::UNDEFINED        22038                       # Cumulative time (in ticks) in various power states
system.ruby.network.netifs145.pwrStateResidencyTicks::UNDEFINED        22038                       # Cumulative time (in ticks) in various power states
system.ruby.network.netifs146.pwrStateResidencyTicks::UNDEFINED        22038                       # Cumulative time (in ticks) in various power states
system.ruby.network.netifs147.pwrStateResidencyTicks::UNDEFINED        22038                       # Cumulative time (in ticks) in various power states
system.ruby.network.netifs148.pwrStateResidencyTicks::UNDEFINED        22038                       # Cumulative time (in ticks) in various power states
system.ruby.network.netifs149.pwrStateResidencyTicks::UNDEFINED        22038                       # Cumulative time (in ticks) in various power states
system.ruby.network.netifs150.pwrStateResidencyTicks::UNDEFINED        22038                       # Cumulative time (in ticks) in various power states
system.ruby.network.netifs151.pwrStateResidencyTicks::UNDEFINED        22038                       # Cumulative time (in ticks) in various power states
system.ruby.network.netifs152.pwrStateResidencyTicks::UNDEFINED        22038                       # Cumulative time (in ticks) in various power states
system.ruby.network.netifs153.pwrStateResidencyTicks::UNDEFINED        22038                       # Cumulative time (in ticks) in various power states
system.ruby.network.netifs154.pwrStateResidencyTicks::UNDEFINED        22038                       # Cumulative time (in ticks) in various power states
system.ruby.network.netifs155.pwrStateResidencyTicks::UNDEFINED        22038                       # Cumulative time (in ticks) in various power states
system.ruby.network.netifs156.pwrStateResidencyTicks::UNDEFINED        22038                       # Cumulative time (in ticks) in various power states
system.ruby.network.netifs157.pwrStateResidencyTicks::UNDEFINED        22038                       # Cumulative time (in ticks) in various power states
system.ruby.network.netifs158.pwrStateResidencyTicks::UNDEFINED        22038                       # Cumulative time (in ticks) in various power states
system.ruby.network.netifs159.pwrStateResidencyTicks::UNDEFINED        22038                       # Cumulative time (in ticks) in various power states
system.ruby.network.packet_network_latency |     3035520                       |      964896                       |      375168                       |      303888                       |      375168                       |      375168                       |      375168                       |           0                       |      248864                       |      375168                      
system.ruby.network.packet_queueing_latency |    11317120                       |     7230880                       |     1448576                       |     4186192                       |     3702400                       |     2575488                       |     2705024                       |           0                       |     3640352                       |     3831936                      
system.ruby.network.packets_injected     |        1328     36.09%     36.09% |         512     13.91%     50.00% |         304      8.26%     58.26% |         256      6.96%     65.22% |         256      6.96%     72.17% |         256      6.96%     79.13% |         256      6.96%     86.09% |           0      0.00%     86.09% |         256      6.96%     93.04% |         256      6.96%    100.00%
system.ruby.network.packets_injected::total         3680                      
system.ruby.network.packets_received     |        1280     37.38%     37.38% |         448     13.08%     50.47% |         256      7.48%     57.94% |         224      6.54%     64.49% |         256      7.48%     71.96% |         256      7.48%     79.44% |         256      7.48%     86.92% |           0      0.00%     86.92% |         192      5.61%     92.52% |         256      7.48%    100.00%
system.ruby.network.packets_received::total         3424                      
system.ruby.network.pwrStateResidencyTicks::UNDEFINED        22038                       # Cumulative time (in ticks) in various power states
system.ruby.network.routers0.buffer_reads        14064                      
system.ruby.network.routers0.buffer_writes        14064                      
system.ruby.network.routers0.crossbar_activity        14064                      
system.ruby.network.routers0.pwrStateResidencyTicks::UNDEFINED        22038                       # Cumulative time (in ticks) in various power states
system.ruby.network.routers0.sw_input_arbiter_activity        14064                      
system.ruby.network.routers0.sw_output_arbiter_activity        14064                      
system.ruby.network.routers1.buffer_reads        14064                      
system.ruby.network.routers1.buffer_writes        14064                      
system.ruby.network.routers1.crossbar_activity        14064                      
system.ruby.network.routers1.pwrStateResidencyTicks::UNDEFINED        22038                       # Cumulative time (in ticks) in various power states
system.ruby.network.routers1.sw_input_arbiter_activity        14064                      
system.ruby.network.routers1.sw_output_arbiter_activity        14064                      
system.ruby.network.routers2.buffer_reads        14064                      
system.ruby.network.routers2.buffer_writes        14064                      
system.ruby.network.routers2.crossbar_activity        14064                      
system.ruby.network.routers2.pwrStateResidencyTicks::UNDEFINED        22038                       # Cumulative time (in ticks) in various power states
system.ruby.network.routers2.sw_input_arbiter_activity        14064                      
system.ruby.network.routers2.sw_output_arbiter_activity        14064                      
system.ruby.network.routers3.buffer_reads        14064                      
system.ruby.network.routers3.buffer_writes        14064                      
system.ruby.network.routers3.crossbar_activity        14064                      
system.ruby.network.routers3.pwrStateResidencyTicks::UNDEFINED        22038                       # Cumulative time (in ticks) in various power states
system.ruby.network.routers3.sw_input_arbiter_activity        14064                      
system.ruby.network.routers3.sw_output_arbiter_activity        14064                      
system.ruby.network.routers4.buffer_reads        14064                      
system.ruby.network.routers4.buffer_writes        14064                      
system.ruby.network.routers4.crossbar_activity        14064                      
system.ruby.network.routers4.pwrStateResidencyTicks::UNDEFINED        22038                       # Cumulative time (in ticks) in various power states
system.ruby.network.routers4.sw_input_arbiter_activity        14064                      
system.ruby.network.routers4.sw_output_arbiter_activity        14064                      
system.ruby.network.routers5.buffer_reads        14064                      
system.ruby.network.routers5.buffer_writes        14064                      
system.ruby.network.routers5.crossbar_activity        14064                      
system.ruby.network.routers5.pwrStateResidencyTicks::UNDEFINED        22038                       # Cumulative time (in ticks) in various power states
system.ruby.network.routers5.sw_input_arbiter_activity        14064                      
system.ruby.network.routers5.sw_output_arbiter_activity        14064                      
system.ruby.network.routers6.buffer_reads        14064                      
system.ruby.network.routers6.buffer_writes        14064                      
system.ruby.network.routers6.crossbar_activity        14064                      
system.ruby.network.routers6.pwrStateResidencyTicks::UNDEFINED        22038                       # Cumulative time (in ticks) in various power states
system.ruby.network.routers6.sw_input_arbiter_activity        14064                      
system.ruby.network.routers6.sw_output_arbiter_activity        14064                      
system.ruby.network.routers7.buffer_reads        14064                      
system.ruby.network.routers7.buffer_writes        14064                      
system.ruby.network.routers7.crossbar_activity        14064                      
system.ruby.network.routers7.pwrStateResidencyTicks::UNDEFINED        22038                       # Cumulative time (in ticks) in various power states
system.ruby.network.routers7.sw_input_arbiter_activity        14064                      
system.ruby.network.routers7.sw_output_arbiter_activity        14064                      
system.ruby.outstanding_req_hist_seqr::bucket_size            1                      
system.ruby.outstanding_req_hist_seqr::max_bucket            9                      
system.ruby.outstanding_req_hist_seqr::samples            8                      
system.ruby.outstanding_req_hist_seqr::mean            1                      
system.ruby.outstanding_req_hist_seqr::gmean            1                      
system.ruby.outstanding_req_hist_seqr    |           0      0.00%      0.00% |           8    100.00%    100.00% |           0      0.00%    100.00% |           0      0.00%    100.00% |           0      0.00%    100.00% |           0      0.00%    100.00% |           0      0.00%    100.00% |           0      0.00%    100.00% |           0      0.00%    100.00% |           0      0.00%    100.00%
system.ruby.outstanding_req_hist_seqr::total            8                      
system.ruby.pwrStateResidencyTicks::UNDEFINED        22038                       # Cumulative time (in ticks) in various power states
system.sys_port_proxy.pwrStateResidencyTicks::UNDEFINED        22038                       # Cumulative time (in ticks) in various power states
system.voltage_domain.voltage                       1                       # Voltage in Volts

---------- End Simulation Statistics   ----------
